 Abaqus/Standard 3DEXPERIENCE R2019x                  DATE 11-Nov-2019 TIME 11:02:52
 SUMMARY OF JOB INFORMATION:
 STEP  INC ATT SEVERE EQUIL TOTAL  TOTAL      STEP       INC OF       DOF    IF
               DISCON ITERS ITERS  TIME/    TIME/LPF    TIME/LPF    MONITOR RIKS
               ITERS               FREQ
   1     1   1     0     1     1  1.00       1.00       1.000     
   2     1   1U    0     2     2  1.00       0.000      6000.     
   2     1   2U    0     2     2  1.00       0.000      1547.     
   2     1   3     0     2     2  1.02e+03   1.02e+03   1021.     
   2     2   1     0     2     2  2.04e+03   2.04e+03   1021.     
   2     3   1     0     2     2  3.06e+03   3.06e+03   1021.     
   2     4   1     0     2     2  4.09e+03   4.09e+03   1021.     
   2     5   1     0     2     2  5.11e+03   5.11e+03   1021.     
   2     6   1     0     2     2  6.64e+03   6.64e+03   1532.     
   2     7   1     0     2     2  8.94e+03   8.94e+03   2298.     
   2     8   1     0     2     2  1.24e+04   1.24e+04   3447.     
   2     9   1     0     2     2  1.76e+04   1.76e+04   5170.     
   2    10   1     0     2     2  2.27e+04   2.27e+04   5170.     
   2    11   1     0     2     2  2.79e+04   2.79e+04   5170.     
   2    12   1     0     2     2  3.31e+04   3.31e+04   5170.     
   2    13   1     0     2     2  3.82e+04   3.82e+04   5170.     
   2    14   1     0     2     2  4.32e+04   4.32e+04   4967.     
                          
 THE ANALYSIS HAS COMPLETED SUCCESSFULLY
