
 ***NOTE: Exportfile (D:\Benutzer\Biebricher\Dokumente\80 
          Dissertation\Programmierung\Abaqus-Pace3D-Transition\abq_subroutines\s
          ample\Cube_PP_SubRTest_void-ratio.csv) opened succesfully. If the 
          analysis stops here, the file may be openedby another process!

 ***NOTE: Matrixfile (D:\Benutzer\Biebricher\Dokumente\80 
          Dissertation\Programmierung\Abaqus-Pace3D-Transition\abq_subroutines\s
          ample\Cube_PP_SubRTest_matrix.csv) opened succesfully. If the 
          analysis stops here, the file may be openedby another process!

 ***NOTE: Subroutine uExternalDB() has been executed. analysisPos: 0

 ***NOTE: Subroutine uExternalDB() has been executed. Time: 0.0000, 0.0000
1

   Abaqus 3DEXPERIENCE R2019x                                  Date 11-Nov-2019   Time 11:02:52
   For use by RWTH AACHEN UNIVERSITY under license from Dassault Systemes or its subsidiary.

                                                                                 
                                                                                 
 STEP    1     INCREMENT     1     STEP TIME    0.00    


                        S T E P       1     G E O S T A T I C   S T R E S S   A N A L Y S I S


                                                                                          

 CONVERGENCE TOLERANCE PARAMETERS FOR FORCE    
     CRITERION FOR RESIDUAL FORCE     FOR A NONLINEAR PROBLEM          5.000E-03
     CRITERION FOR DISP.    CORRECTION IN A NONLINEAR PROBLEM          1.000E-02
     INITIAL VALUE OF TIME AVERAGE FORCE                               1.000E-02
     AVERAGE FORCE     IS TIME AVERAGE FORCE    
     ALTERNATE CRIT. FOR RESIDUAL FORCE     FOR A NONLINEAR PROBLEM    2.000E-02
     CRITERION FOR ZERO FORCE     RELATIVE TO TIME AVRG. FORCE         1.000E-05
     CRITERION FOR RESIDUAL FORCE     WHEN THERE IS ZERO FLUX          1.000E-05
     CRITERION FOR DISP.    CORRECTION WHEN THERE IS ZERO FLUX         1.000E-03
     CRITERION FOR RESIDUAL FORCE     FOR A LINEAR INCREMENT           1.000E-08
     FIELD CONVERSION RATIO                                             1.00    
     CRITERION FOR ZERO FORCE     REL. TO TIME AVRG. MAX. FORCE        1.000E-05
     CRITERION FOR ZERO DISP.    RELATIVE TO CHARACTERISTIC LENGTH     1.000E-08

 CONVERGENCE TOLERANCE PARAMETERS FOR VOL. FLUX
     CRITERION FOR RESIDUAL VOL. FLUX FOR A NONLINEAR PROBLEM          5.000E-03
     CRITERION FOR P.PRESS. CORRECTION IN A NONLINEAR PROBLEM          1.000E-02
     INITIAL VALUE OF TIME AVERAGE VOL. FLUX                           1.000E-02
     AVERAGE VOL. FLUX IS TIME AVERAGE VOL. FLUX
     ALTERNATE CRIT. FOR RESIDUAL VOL. FLUX FOR A NONLINEAR PROBLEM    2.000E-02
     CRITERION FOR ZERO VOL. FLUX RELATIVE TO TIME AVRG. VOL. FLUX     1.000E-05
     CRITERION FOR RESIDUAL VOL. FLUX WHEN THERE IS ZERO FLUX          1.000E-05
     CRITERION FOR P.PRESS. CORRECTION WHEN THERE IS ZERO FLUX         1.000E-03
     CRITERION FOR RESIDUAL VOL. FLUX FOR A LINEAR INCREMENT           1.000E-08
     FIELD CONVERSION RATIO                                             1.00    
     CRITERION FOR ZERO VOL. FLUX REL. TO TIME AVRG. MAX. VOL. FLUX    1.000E-05

     VOLUMETRIC STRAIN COMPATIBILITY TOLERANCE FOR HYBRID SOLIDS       1.000E-05
     AXIAL STRAIN COMPATIBILITY TOLERANCE FOR HYBRID BEAMS             1.000E-05
     TRANS. SHEAR STRAIN COMPATIBILITY TOLERANCE FOR HYBRID BEAMS      1.000E-05
     SOFT CONTACT CONSTRAINT COMPATIBILITY TOLERANCE FOR P>P0          5.000E-03
     SOFT CONTACT CONSTRAINT COMPATIBILITY TOLERANCE FOR P=0.0         0.100    
     CONTACT FORCE ERROR TOLERANCE FOR CONVERT SDI=YES                 1.00    
     DISPLACEMENT COMPATIBILITY TOLERANCE FOR DCOUP ELEMENTS           1.000E-05
     ROTATION COMPATIBILITY TOLERANCE FOR DCOUP ELEMENTS               1.000E-05

 EQUILIBRIUM WILL BE CHECKED FOR SEVERE DISCONTINUITY ITERATIONS

 ITERATION CONTROL PARAMETERS:
     FIRST EQUILIBRIUM ITERATION FOR CONSECUTIVE DIVERGENCE CHECK              4
     EQUILIBRIUM ITERATION AFTER WHICH ALTERNATE RESIDUAL IS USED              9
     MAXIMUM EQUILIBRIUM ITERATIONS ALLOWED                                   16
     MAXIMUM ITERATIONS FOR SEVERE DISCONTINUITIES                            12
     GLOBAL STABILIZATION CONTROL IS NOT USED

          PRINT OF INCREMENT NUMBER, TIME, ETC., EVERY    1  INCREMENTS

     THE MAXIMUM NUMBER OF INCREMENTS IN THIS STEP IS                       1

          UNSYMMETRIC MATRIX STORAGE AND SOLUTION WILL BE USED

     LINEAR EXTRAPOLATION WILL BE USED

     CHARACTERISTIC ELEMENT LENGTH      1.00    

     DETAILS REGARDING ACTUAL SOLUTION WAVEFRONT REQUESTED

     DETAILED OUTPUT OF DIAGNOSTICS TO DATABASE REQUESTED

     PRINT OF INCREMENT NUMBER, TIME, ETC., TO THE MESSAGE FILE EVERY     1  INCREMENTS

 ***NOTE: Subroutine uExternalDB() has been executed. analysisPos: 5

 ***NOTE: Subroutine uExternalDB() has been executed. Time: 0.0000, 0.0000

     COLLECTING MODEL CONSTRAINT INFORMATION FOR OVERCONSTRAINT CHECKS

     COLLECTING STEP CONSTRAINT INFORMATION FOR OVERCONSTRAINT CHECKS

 ***NOTE: Subroutine uExternalDB() has been executed. analysisPos: 1

 ***NOTE: Subroutine uExternalDB() has been executed. Time: 0.0000, 0.0000
 
     CONTACT INITIAL STRESS CALCULATIONS ARE TURNED ON IN ZEROINC

 ***NOTE: Subroutine uExternalDB() has been executed. analysisPos: 1

 ***NOTE: Subroutine uExternalDB() has been executed. Time: 0.0000, 0.0000

  NUMBER OF EQUATIONS =     18003     NUMBER OF RHS =    1
  NUMBER OF FLOATING PT. OPERATIONS =  6.27E+08

     CHECK POINT   START OF SOLVER    

     CHECK POINT  END OF SOLVER       

       ELAPSED USER TIME (SEC)      =  0.20000    
       ELAPSED SYSTEM TIME (SEC)    =   0.0000    
       ELAPSED TOTAL CPU TIME (SEC) =  0.20000    
       ELAPSED WALLCLOCK TIME (SEC) =          0

               CONVERGENCE CHECKS FOR EQUILIBRIUM ITERATION     1


 AVERAGE FORCE                      8.800E+04   TIME AVG. FORCE       8.800E+04
 LARGEST RESIDUAL FORCE            -2.075E-02   AT NODE       3138   DOF  2
   INSTANCE: PART_1-1                                                                        
 LARGEST INCREMENT OF DISP.        -3.482E-04   AT NODE        225   DOF  2
   INSTANCE: PART_1-1                                                                        
 LARGEST CORRECTION TO DISP.       -3.482E-04   AT NODE        225   DOF  2
   INSTANCE: PART_1-1                                                                        
 ESTIMATE OF DISP.    CORRECTION   -1.436E-06
 FORCE     EQUILIB. ACCEPTED BASED ON SMALL RESIDUAL AND ESTIMATED CORRECTION

 AVERAGE VOL. FLUX                  8.985E-23   TIME AVG. VOL. FLUX   1.000E-02
 LARGEST RESIDUAL VOL. FLUX        -1.567E-21   AT NODE        772   DOF  8
   INSTANCE: PART_1-1                                                                        
 LARGEST INCREMENT OF P.PRESS.     -1.193E-10   AT NODE         66   DOF  8
   INSTANCE: PART_1-1                                                                        
 LARGEST CORRECTION TO P.PRESS.    -1.193E-10   AT NODE         66   DOF  8
   INSTANCE: PART_1-1                                                                        
          THERE IS ZERO VOL. FLUX EVERYWHERE
 

 ***WARNING: THERE IS ZERO VOL. FLUX EVERYWHERE IN THE MODEL BASED ON THE 
             DEFAULT CRITERION. PLEASE CHECK THE VALUE OF THE AVERAGE VOL. FLUX 
             DURING THE CURRENT ITERATION TO VERIFY THAT THE VOL. FLUX IS SMALL 
             ENOUGH TO BE TREATED AS ZERO. IF NOT, PLEASE USE THE SOLUTION 
             CONTROLS TO RESET THE CRITERION FOR ZERO VOL. FLUX.

 ***NOTE: Subroutine uExternalDB() has been executed. analysisPos: 2

 ***NOTE: Subroutine uExternalDB() has been executed. Time: 1.0000, 1.0000

 ITERATION SUMMARY FOR THE INCREMENT:   1 TOTAL ITERATIONS, OF WHICH
   0 ARE SEVERE DISCONTINUITY ITERATIONS AND  1 ARE EQUILIBRIUM ITERATIONS.

 TIME INCREMENT COMPLETED   1.00    ,  FRACTION OF STEP COMPLETED   1.00    
 STEP TIME COMPLETED        1.00    ,  TOTAL TIME COMPLETED         1.00    

 ***NOTE: Subroutine uExternalDB() has been executed. analysisPos: 6

 ***NOTE: Subroutine uExternalDB() has been executed. Time: 1.0000, 1.0000
1

   Abaqus 3DEXPERIENCE R2019x                                  Date 11-Nov-2019   Time 11:02:53
   For use by RWTH AACHEN UNIVERSITY under license from Dassault Systemes or its subsidiary.

                                                                                 
                                                                                 
 STEP    2     INCREMENT     1     STEP TIME    0.00    


                        S T E P       2     C O N S O L I D A T I O N   A N A L Y S I S


                                                                                          
          MAX. PORE PRESSURE CHANGE PERMITTED IN AN INC.       5.000E+04
          A SUGGESTED INITIAL TIME INCREMENT OF                6.000E+03
          AND A TOTAL TIME PERIOD OF                           4.320E+04
          THE MINIMUM TIME INCREMENT ALLOWED IS                1.000E-05
          THE MAXIMUM TIME INCREMENT ALLOWED IS                6.000E+03



          CREEP, SWELLING, AND VISCOELASTIC EFFECTS ARE OMITTED IN THIS STEP
          THE ANALYSIS WILL TERMINATE AT THE FINAL TIME SPECIFIED


 CONVERGENCE TOLERANCE PARAMETERS FOR FORCE    
     CRITERION FOR RESIDUAL FORCE     FOR A NONLINEAR PROBLEM          5.000E-03
     CRITERION FOR DISP.    CORRECTION IN A NONLINEAR PROBLEM          1.000E-02
     INIT. VALUE OF TIME AVG. FORCE     IS TIME AVG. FORCE     IN PREVIOUS STEP
     AVERAGE FORCE     IS TIME AVERAGE FORCE    
     ALTERNATE CRIT. FOR RESIDUAL FORCE     FOR A NONLINEAR PROBLEM    2.000E-02
     CRITERION FOR ZERO FORCE     RELATIVE TO TIME AVRG. FORCE         1.000E-05
     CRITERION FOR RESIDUAL FORCE     WHEN THERE IS ZERO FLUX          1.000E-05
     CRITERION FOR DISP.    CORRECTION WHEN THERE IS ZERO FLUX         1.000E-03
     CRITERION FOR RESIDUAL FORCE     FOR A LINEAR INCREMENT           1.000E-08
     FIELD CONVERSION RATIO                                             1.00    
     CRITERION FOR ZERO FORCE     REL. TO TIME AVRG. MAX. FORCE        1.000E-05
     CRITERION FOR ZERO DISP.    RELATIVE TO CHARACTERISTIC LENGTH     1.000E-08

 CONVERGENCE TOLERANCE PARAMETERS FOR VOL. FLUX
     CRITERION FOR RESIDUAL VOL. FLUX FOR A NONLINEAR PROBLEM          5.000E-03
     CRITERION FOR P.PRESS. CORRECTION IN A NONLINEAR PROBLEM          1.000E-02
     INIT. VALUE OF TIME AVG. VOL. FLUX IS TIME AVG. VOL. FLUX IN PREVIOUS STEP
     AVERAGE VOL. FLUX IS TIME AVERAGE VOL. FLUX
     ALTERNATE CRIT. FOR RESIDUAL VOL. FLUX FOR A NONLINEAR PROBLEM    2.000E-02
     CRITERION FOR ZERO VOL. FLUX RELATIVE TO TIME AVRG. VOL. FLUX     1.000E-05
     CRITERION FOR RESIDUAL VOL. FLUX WHEN THERE IS ZERO FLUX          1.000E-05
     CRITERION FOR P.PRESS. CORRECTION WHEN THERE IS ZERO FLUX         1.000E-03
     CRITERION FOR RESIDUAL VOL. FLUX FOR A LINEAR INCREMENT           1.000E-08
     FIELD CONVERSION RATIO                                             1.00    
     CRITERION FOR ZERO VOL. FLUX REL. TO TIME AVRG. MAX. VOL. FLUX    1.000E-05

     VOLUMETRIC STRAIN COMPATIBILITY TOLERANCE FOR HYBRID SOLIDS       1.000E-05
     AXIAL STRAIN COMPATIBILITY TOLERANCE FOR HYBRID BEAMS             1.000E-05
     TRANS. SHEAR STRAIN COMPATIBILITY TOLERANCE FOR HYBRID BEAMS      1.000E-05
     SOFT CONTACT CONSTRAINT COMPATIBILITY TOLERANCE FOR P>P0          5.000E-03
     SOFT CONTACT CONSTRAINT COMPATIBILITY TOLERANCE FOR P=0.0         0.100    
     CONTACT FORCE ERROR TOLERANCE FOR CONVERT SDI=YES                 1.00    
     DISPLACEMENT COMPATIBILITY TOLERANCE FOR DCOUP ELEMENTS           1.000E-05
     ROTATION COMPATIBILITY TOLERANCE FOR DCOUP ELEMENTS               1.000E-05

 EQUILIBRIUM WILL BE CHECKED FOR SEVERE DISCONTINUITY ITERATIONS

 TIME INCREMENTATION CONTROL PARAMETERS:
     FIRST EQUILIBRIUM ITERATION FOR CONSECUTIVE DIVERGENCE CHECK              4
     EQUILIBRIUM ITERATION AT WHICH LOG. CONVERGENCE RATE CHECK BEGINS         8
     EQUILIBRIUM ITERATION AFTER WHICH ALTERNATE RESIDUAL IS USED              9
     MAXIMUM EQUILIBRIUM ITERATIONS ALLOWED                                   16
     EQUILIBRIUM ITERATION COUNT FOR CUT-BACK IN NEXT INCREMENT               10
     MAXIMUM EQUILIB. ITERS IN TWO INCREMENTS FOR TIME INCREMENT INCREASE      4
     MAXIMUM ITERATIONS FOR SEVERE DISCONTINUITIES                            50
     MAXIMUM ATTEMPTS ALLOWED IN AN INCREMENT                                  5
     MAXIMUM DISCON. ITERS IN TWO INCREMENTS FOR TIME INCREMENT INCREASE      50
     MAXIMUM CONTACT AUGMENTATIONS FOR *SURFACE BEHAVIOR,AUGMENTED LAGRANGE   50
     CONSECUTIVE INCS MEETING TIME INTEG. TOL. FOR TIME INC. INCREASE          3
     CUT-BACK FACTOR AFTER DIVERGENCE                                 0.2500    
     CUT-BACK FACTOR FOR TOO SLOW CONVERGENCE                         0.5000    
     CUT-BACK FACTOR AFTER TOO MANY EQUILIBRIUM ITERATIONS            0.7500    
     CUT-BACK FACTOR AFTER TOO MANY SEVERE DISCONTINUITY ITERATIONS   0.2500    
     CUT-BACK FACTOR AFTER PROBLEMS IN ELEMENT ASSEMBLY               0.2500    
     INCREASE FACTOR AFTER TWO INCREMENTS THAT CONVERGE QUICKLY        1.500    
     MAX. TIME INCREMENT INCREASE FACTOR ALLOWED                       1.500    
     MAX. TIME INCREMENT INCREASE FACTOR ALLOWED (DYNAMICS)            1.250    
     MAX. TIME INCREMENT INCREASE FACTOR ALLOWED (DIFFUSION)           2.000    
     MINIMUM TIME INCREMENT RATIO FOR EXTRAPOLATION TO OCCUR          0.1000    
     CUT-BACK FACTOR WHEN TIME INTEGRATION ACCURACY TOL. EXCEEDED     0.8500    
     MAX. RATIO OF TIME INTEG. MEASURE TO TOL. FOR TIME INC. INCREASE 0.7500    
     INCREASE FACTOR FOR TIME INCREMENT WHEN POSSIBLE                 0.8000    
     MIN. TIME INC. INCREASE FACTOR IN LINEAR TRANSIENT PROBLEMS      0.9500    
     MAX. RATIO OF TIME INCREMENT TO STABILITY LIMIT                   1.000    
     FRACTION OF STABILITY LIMIT FOR NEW TIME INCREMENT               0.9500    
     TIME INCREMENT INCREASE FACTOR BEFORE A TIME POINT                1.000    
     GLOBAL STABILIZATION CONTROL IS NOT USED

          PRINT OF INCREMENT NUMBER, TIME, ETC., EVERY    1  INCREMENTS

     THE MAXIMUM NUMBER OF INCREMENTS IN THIS STEP IS                   10000

          UNSYMMETRIC MATRIX STORAGE AND SOLUTION WILL BE USED

     LINEAR EXTRAPOLATION WILL BE USED

     CHARACTERISTIC ELEMENT LENGTH      1.00    

     DETAILS REGARDING ACTUAL SOLUTION WAVEFRONT REQUESTED

     DETAILED OUTPUT OF DIAGNOSTICS TO DATABASE REQUESTED

     PRINT OF INCREMENT NUMBER, TIME, ETC., TO THE MESSAGE FILE EVERY     1  INCREMENTS

 ***NOTE: Subroutine uExternalDB() has been executed. analysisPos: 5

 ***NOTE: Subroutine uExternalDB() has been executed. Time: 0.0000, 1.0000

     COLLECTING STEP CONSTRAINT INFORMATION FOR OVERCONSTRAINT CHECKS

 ***NOTE: Subroutine uExternalDB() has been executed. analysisPos: 1

 ***NOTE: Subroutine uExternalDB() has been executed. Time: 0.0000, 1.0000


  INCREMENT     1 STARTS. ATTEMPT NUMBER  1, TIME INCREMENT  6.000E+03

 ***NOTE: Subroutine uExternalDB() has been executed. analysisPos: 1

 ***NOTE: Subroutine uExternalDB() has been executed. Time: 0.0000, 1.0000

 ***NOTE: Subroutine disp() has been executed. node: 1

 ***NOTE: Subroutine disp() has been executed. u(1): 4.22375E+05

 ***NOTE: Subroutine disp() has been executed.					coords(1): 25.000

 ***NOTE: Subroutine disp() has been executed.					coords(2): 0.0000

 ***NOTE: Subroutine disp() has been executed.					coords(3): 0.0000

 ***NOTE: Subroutine disp() has been executed. SET 				pore pressure: 
          1.23456E+05!

 ***NOTE: Subroutine disp() has been executed. node: 105

 ***NOTE: Subroutine disp() has been executed. u(1): 4.22375E+05

 ***NOTE: Subroutine disp() has been executed.					coords(1): 24.000

 ***NOTE: Subroutine disp() has been executed.					coords(2): 0.0000

 ***NOTE: Subroutine disp() has been executed.					coords(3): 0.0000

 ***NOTE: Subroutine disp() has been executed. SET 				pore pressure: 
          1.23456E+05!

 ***NOTE: Subroutine disp() has been executed. node: 104

 ***NOTE: Subroutine disp() has been executed. u(1): 4.22375E+05

 ***NOTE: Subroutine disp() has been executed.					coords(1): 23.000

 ***NOTE: Subroutine disp() has been executed.					coords(2): 0.0000

 ***NOTE: Subroutine disp() has been executed.					coords(3): 0.0000

 ***NOTE: Subroutine disp() has been executed. SET 				pore pressure: 
          1.23456E+05!

 ***NOTE: Subroutine disp() has been executed. node: 103

 ***NOTE: Subroutine disp() has been executed. u(1): 4.22375E+05

 ***NOTE: Subroutine disp() has been executed.					coords(1): 22.000

 ***NOTE: Subroutine disp() has been executed.					coords(2): 0.0000

 ***NOTE: Subroutine disp() has been executed.					coords(3): 0.0000

 ***NOTE: Subroutine disp() has been executed. SET 				pore pressure: 
          1.23456E+05!

 ***NOTE: Subroutine disp() has been executed. node: 102

 ***NOTE: Subroutine disp() has been executed. u(1): 4.22375E+05

 ***NOTE: Subroutine disp() has been executed.					coords(1): 21.000

 ***NOTE: Subroutine disp() has been executed.					coords(2): 0.0000

 ***NOTE: Subroutine disp() has been executed.					coords(3): 0.0000

 ***NOTE: Subroutine disp() has been executed. SET 				pore pressure: 
          1.23456E+05!

 ***NOTE: Subroutine disp() has been executed. node: 101

 ***NOTE: Subroutine disp() has been executed. u(1): 4.22375E+05

 ***NOTE: Subroutine disp() has been executed.					coords(1): 20.000

 ***NOTE: Subroutine disp() has been executed.					coords(2): 0.0000

 ***NOTE: Subroutine disp() has been executed.					coords(3): 0.0000

 ***NOTE: Subroutine disp() has been executed. SET 				pore pressure: 
          1.23456E+05!

 ***NOTE: Subroutine disp() has been executed. node: 100

 ***NOTE: Subroutine disp() has been executed. u(1): 4.22375E+05

 ***NOTE: Subroutine disp() has been executed.					coords(1): 19.000

 ***NOTE: Subroutine disp() has been executed.					coords(2): 0.0000

 ***NOTE: Subroutine disp() has been executed.					coords(3): 0.0000

 ***NOTE: Subroutine disp() has been executed. SET 				pore pressure: 
          1.23456E+05!

 ***NOTE: Subroutine disp() has been executed. node: 99

 ***NOTE: Subroutine disp() has been executed. u(1): 4.22375E+05

 ***NOTE: Subroutine disp() has been executed.					coords(1): 18.000

 ***NOTE: Subroutine disp() has been executed.					coords(2): 0.0000

 ***NOTE: Subroutine disp() has been executed.					coords(3): 0.0000

 ***NOTE: Subroutine disp() has been executed. SET 				pore pressure: 
          1.23456E+05!

 ***NOTE: Subroutine disp() has been executed. node: 98

 ***NOTE: Subroutine disp() has been executed. u(1): 4.22375E+05

 ***NOTE: Subroutine disp() has been executed.					coords(1): 17.000

 ***NOTE: Subroutine disp() has been executed.					coords(2): 0.0000

 ***NOTE: Subroutine disp() has been executed.					coords(3): 0.0000

 ***NOTE: Subroutine disp() has been executed. SET 				pore pressure: 
          1.23456E+05!

 ***NOTE: Subroutine disp() has been executed. node: 97

 ***NOTE: Subroutine disp() has been executed. u(1): 4.22375E+05

 ***NOTE: Subroutine disp() has been executed.					coords(1): 16.000

 ***NOTE: Subroutine disp() has been executed.					coords(2): 0.0000

 ***NOTE: Subroutine disp() has been executed.					coords(3): 0.0000

 ***NOTE: Subroutine disp() has been executed. SET 				pore pressure: 
          1.23456E+05!

 ***NOTE: Subroutine disp() has been executed. node: 96

 ***NOTE: Subroutine disp() has been executed. u(1): 4.22375E+05

 ***NOTE: Subroutine disp() has been executed.					coords(1): 15.000

 ***NOTE: Subroutine disp() has been executed.					coords(2): 0.0000

 ***NOTE: Subroutine disp() has been executed.					coords(3): 0.0000

 ***NOTE: Subroutine disp() has been executed. SET 				pore pressure: 
          1.23456E+05!

 ***NOTE: Subroutine disp() has been executed. node: 95

 ***NOTE: Subroutine disp() has been executed. u(1): 4.22375E+05

 ***NOTE: Subroutine disp() has been executed.					coords(1): 14.000

 ***NOTE: Subroutine disp() has been executed.					coords(2): 0.0000

 ***NOTE: Subroutine disp() has been executed.					coords(3): 0.0000

 ***NOTE: Subroutine disp() has been executed. SET 				pore pressure: 
          1.23456E+05!

 ***NOTE: Subroutine disp() has been executed. node: 94

 ***NOTE: Subroutine disp() has been executed. u(1): 4.22375E+05

 ***NOTE: Subroutine disp() has been executed.					coords(1): 13.000

 ***NOTE: Subroutine disp() has been executed.					coords(2): 0.0000

 ***NOTE: Subroutine disp() has been executed.					coords(3): 0.0000

 ***NOTE: Subroutine disp() has been executed. SET 				pore pressure: 
          1.23456E+05!

 ***NOTE: Subroutine disp() has been executed. node: 93

 ***NOTE: Subroutine disp() has been executed. u(1): 4.22375E+05

 ***NOTE: Subroutine disp() has been executed.					coords(1): 12.000

 ***NOTE: Subroutine disp() has been executed.					coords(2): 0.0000

 ***NOTE: Subroutine disp() has been executed.					coords(3): 0.0000

 ***NOTE: Subroutine disp() has been executed. SET 				pore pressure: 
          1.23456E+05!

 ***NOTE: Subroutine disp() has been executed. node: 92

 ***NOTE: Subroutine disp() has been executed. u(1): 4.22375E+05

 ***NOTE: Subroutine disp() has been executed.					coords(1): 11.000

 ***NOTE: Subroutine disp() has been executed.					coords(2): 0.0000

 ***NOTE: Subroutine disp() has been executed.					coords(3): 0.0000

 ***NOTE: Subroutine disp() has been executed. SET 				pore pressure: 
          1.23456E+05!

 ***NOTE: Subroutine disp() has been executed. node: 91

 ***NOTE: Subroutine disp() has been executed. u(1): 4.22375E+05

 ***NOTE: Subroutine disp() has been executed.					coords(1): 10.000

 ***NOTE: Subroutine disp() has been executed.					coords(2): 0.0000

 ***NOTE: Subroutine disp() has been executed.					coords(3): 0.0000

 ***NOTE: Subroutine disp() has been executed. SET 				pore pressure: 
          1.23456E+05!

 ***NOTE: Subroutine disp() has been executed. node: 90

 ***NOTE: Subroutine disp() has been executed. u(1): 4.22375E+05

 ***NOTE: Subroutine disp() has been executed.					coords(1): 9.0000

 ***NOTE: Subroutine disp() has been executed.					coords(2): 0.0000

 ***NOTE: Subroutine disp() has been executed.					coords(3): 0.0000

 ***NOTE: Subroutine disp() has been executed. SET 				pore pressure: 
          1.23456E+05!

 ***NOTE: Subroutine disp() has been executed. node: 89

 ***NOTE: Subroutine disp() has been executed. u(1): 4.22375E+05

 ***NOTE: Subroutine disp() has been executed.					coords(1): 8.0000

 ***NOTE: Subroutine disp() has been executed.					coords(2): 0.0000

 ***NOTE: Subroutine disp() has been executed.					coords(3): 0.0000

 ***NOTE: Subroutine disp() has been executed. SET 				pore pressure: 
          1.23456E+05!

 ***NOTE: Subroutine disp() has been executed. node: 88

 ***NOTE: Subroutine disp() has been executed. u(1): 4.22375E+05

 ***NOTE: Subroutine disp() has been executed.					coords(1): 7.0000

 ***NOTE: Subroutine disp() has been executed.					coords(2): 0.0000

 ***NOTE: Subroutine disp() has been executed.					coords(3): 0.0000

 ***NOTE: Subroutine disp() has been executed. SET 				pore pressure: 
          1.23456E+05!

 ***NOTE: Subroutine disp() has been executed. node: 87

 ***NOTE: Subroutine disp() has been executed. u(1): 4.22375E+05

 ***NOTE: Subroutine disp() has been executed.					coords(1): 6.0000

 ***NOTE: Subroutine disp() has been executed.					coords(2): 0.0000

 ***NOTE: Subroutine disp() has been executed.					coords(3): 0.0000

 ***NOTE: Subroutine disp() has been executed. SET 				pore pressure: 
          1.23456E+05!

 ***NOTE: Subroutine disp() has been executed. node: 86

 ***NOTE: Subroutine disp() has been executed. u(1): 4.22375E+05

 ***NOTE: Subroutine disp() has been executed.					coords(1): 5.0000

 ***NOTE: Subroutine disp() has been executed.					coords(2): 0.0000

 ***NOTE: Subroutine disp() has been executed.					coords(3): 0.0000

 ***NOTE: Subroutine disp() has been executed. SET 				pore pressure: 
          1.23456E+05!

 ***NOTE: Subroutine disp() has been executed. node: 85

 ***NOTE: Subroutine disp() has been executed. u(1): 4.22375E+05

 ***NOTE: Subroutine disp() has been executed.					coords(1): 4.0000

 ***NOTE: Subroutine disp() has been executed.					coords(2): 0.0000

 ***NOTE: Subroutine disp() has been executed.					coords(3): 0.0000

 ***NOTE: Subroutine disp() has been executed. SET 				pore pressure: 
          1.23456E+05!

 ***NOTE: Subroutine disp() has been executed. node: 84

 ***NOTE: Subroutine disp() has been executed. u(1): 4.22375E+05

 ***NOTE: Subroutine disp() has been executed.					coords(1): 3.0000

 ***NOTE: Subroutine disp() has been executed.					coords(2): 0.0000

 ***NOTE: Subroutine disp() has been executed.					coords(3): 0.0000

 ***NOTE: Subroutine disp() has been executed. SET 				pore pressure: 
          1.23456E+05!

 ***NOTE: Subroutine disp() has been executed. node: 83

 ***NOTE: Subroutine disp() has been executed. u(1): 4.22375E+05

 ***NOTE: Subroutine disp() has been executed.					coords(1): 2.0000

 ***NOTE: Subroutine disp() has been executed.					coords(2): 0.0000

 ***NOTE: Subroutine disp() has been executed.					coords(3): 0.0000

 ***NOTE: Subroutine disp() has been executed. SET 				pore pressure: 
          1.23456E+05!

 ***NOTE: Subroutine disp() has been executed. node: 82

 ***NOTE: Subroutine disp() has been executed. u(1): 4.22375E+05

 ***NOTE: Subroutine disp() has been executed.					coords(1): 1.0000

 ***NOTE: Subroutine disp() has been executed.					coords(2): 0.0000

 ***NOTE: Subroutine disp() has been executed.					coords(3): 0.0000

 ***NOTE: Subroutine disp() has been executed. SET 				pore pressure: 
          1.23456E+05!

 ***NOTE: Subroutine disp() has been executed. node: 4

 ***NOTE: Subroutine disp() has been executed. u(1): 4.22375E+05

 ***NOTE: Subroutine disp() has been executed.					coords(1): 0.0000

 ***NOTE: Subroutine disp() has been executed.					coords(2): 0.0000

 ***NOTE: Subroutine disp() has been executed.					coords(3): 0.0000

 ***NOTE: Subroutine disp() has been executed. SET 				pore pressure: 
          1.23456E+05!

 ***NOTE: Subroutine disp() has been executed. node: 250

 ***NOTE: Subroutine disp() has been executed. u(1): 4.22375E+05

 ***NOTE: Subroutine disp() has been executed.					coords(1): 26.000

 ***NOTE: Subroutine disp() has been executed.					coords(2): 0.0000

 ***NOTE: Subroutine disp() has been executed.					coords(3): 0.0000

 ***NOTE: Subroutine disp() has been executed. SET 				pore pressure: 
          1.23456E+05!

 ***NOTE: Subroutine disp() has been executed. node: 251

 ***NOTE: Subroutine disp() has been executed. u(1): 4.22375E+05

 ***NOTE: Subroutine disp() has been executed.					coords(1): 27.000

 ***NOTE: Subroutine disp() has been executed.					coords(2): 0.0000

 ***NOTE: Subroutine disp() has been executed.					coords(3): 0.0000

 ***NOTE: Subroutine disp() has been executed. SET 				pore pressure: 
          1.23456E+05!

 ***NOTE: Subroutine disp() has been executed. node: 252

 ***NOTE: Subroutine disp() has been executed. u(1): 4.22375E+05

 ***NOTE: Subroutine disp() has been executed.					coords(1): 28.000

 ***NOTE: Subroutine disp() has been executed.					coords(2): 0.0000

 ***NOTE: Subroutine disp() has been executed.					coords(3): 0.0000

 ***NOTE: Subroutine disp() has been executed. SET 				pore pressure: 
          1.23456E+05!

 ***NOTE: Subroutine disp() has been executed. node: 253

 ***NOTE: Subroutine disp() has been executed. u(1): 4.22375E+05

 ***NOTE: Subroutine disp() has been executed.					coords(1): 29.000

 ***NOTE: Subroutine disp() has been executed.					coords(2): 0.0000

 ***NOTE: Subroutine disp() has been executed.					coords(3): 0.0000

 ***NOTE: Subroutine disp() has been executed. SET 				pore pressure: 
          1.23456E+05!

 ***NOTE: Subroutine disp() has been executed. node: 254

 ***NOTE: Subroutine disp() has been executed. u(1): 4.22375E+05

 ***NOTE: Subroutine disp() has been executed.					coords(1): 30.000

 ***NOTE: Subroutine disp() has been executed.					coords(2): 0.0000

 ***NOTE: Subroutine disp() has been executed.					coords(3): 0.0000

 ***NOTE: Subroutine disp() has been executed. SET 				pore pressure: 
          1.23456E+05!

 ***NOTE: Subroutine disp() has been executed. node: 255

 ***NOTE: Subroutine disp() has been executed. u(1): 4.22375E+05

 ***NOTE: Subroutine disp() has been executed.					coords(1): 31.000

 ***NOTE: Subroutine disp() has been executed.					coords(2): 0.0000

 ***NOTE: Subroutine disp() has been executed.					coords(3): 0.0000

 ***NOTE: Subroutine disp() has been executed. SET 				pore pressure: 
          1.23456E+05!

 ***NOTE: Subroutine disp() has been executed. node: 256

 ***NOTE: Subroutine disp() has been executed. u(1): 4.22375E+05

 ***NOTE: Subroutine disp() has been executed.					coords(1): 32.000

 ***NOTE: Subroutine disp() has been executed.					coords(2): 0.0000

 ***NOTE: Subroutine disp() has been executed.					coords(3): 0.0000

 ***NOTE: Subroutine disp() has been executed. SET 				pore pressure: 
          1.23456E+05!

 ***NOTE: Subroutine disp() has been executed. node: 257

 ***NOTE: Subroutine disp() has been executed. u(1): 4.22375E+05

 ***NOTE: Subroutine disp() has been executed.					coords(1): 33.000

 ***NOTE: Subroutine disp() has been executed.					coords(2): 0.0000

 ***NOTE: Subroutine disp() has been executed.					coords(3): 0.0000

 ***NOTE: Subroutine disp() has been executed. SET 				pore pressure: 
          1.23456E+05!

 ***NOTE: Subroutine disp() has been executed. node: 258

 ***NOTE: Subroutine disp() has been executed. u(1): 4.22375E+05

 ***NOTE: Subroutine disp() has been executed.					coords(1): 34.000

 ***NOTE: Subroutine disp() has been executed.					coords(2): 0.0000

 ***NOTE: Subroutine disp() has been executed.					coords(3): 0.0000

 ***NOTE: Subroutine disp() has been executed. SET 				pore pressure: 
          1.23456E+05!

 ***NOTE: Subroutine disp() has been executed. node: 259

 ***NOTE: Subroutine disp() has been executed. u(1): 4.22375E+05

 ***NOTE: Subroutine disp() has been executed.					coords(1): 35.000

 ***NOTE: Subroutine disp() has been executed.					coords(2): 0.0000

 ***NOTE: Subroutine disp() has been executed.					coords(3): 0.0000

 ***NOTE: Subroutine disp() has been executed. SET 				pore pressure: 
          1.23456E+05!

 ***NOTE: Subroutine disp() has been executed. node: 260

 ***NOTE: Subroutine disp() has been executed. u(1): 4.22375E+05

 ***NOTE: Subroutine disp() has been executed.					coords(1): 36.000

 ***NOTE: Subroutine disp() has been executed.					coords(2): 0.0000

 ***NOTE: Subroutine disp() has been executed.					coords(3): 0.0000

 ***NOTE: Subroutine disp() has been executed. SET 				pore pressure: 
          1.23456E+05!

 ***NOTE: Subroutine disp() has been executed. node: 261

 ***NOTE: Subroutine disp() has been executed. u(1): 4.22375E+05

 ***NOTE: Subroutine disp() has been executed.					coords(1): 37.000

 ***NOTE: Subroutine disp() has been executed.					coords(2): 0.0000

 ***NOTE: Subroutine disp() has been executed.					coords(3): 0.0000

 ***NOTE: Subroutine disp() has been executed. SET 				pore pressure: 
          1.23456E+05!

 ***NOTE: Subroutine disp() has been executed. node: 262

 ***NOTE: Subroutine disp() has been executed. u(1): 4.22375E+05

 ***NOTE: Subroutine disp() has been executed.					coords(1): 38.000

 ***NOTE: Subroutine disp() has been executed.					coords(2): 0.0000

 ***NOTE: Subroutine disp() has been executed.					coords(3): 0.0000

 ***NOTE: Subroutine disp() has been executed. SET 				pore pressure: 
          1.23456E+05!

 ***NOTE: Subroutine disp() has been executed. node: 263

 ***NOTE: Subroutine disp() has been executed. u(1): 4.22375E+05

 ***NOTE: Subroutine disp() has been executed.					coords(1): 39.000

 ***NOTE: Subroutine disp() has been executed.					coords(2): 0.0000

 ***NOTE: Subroutine disp() has been executed.					coords(3): 0.0000

 ***NOTE: Subroutine disp() has been executed. SET 				pore pressure: 
          1.23456E+05!

 ***NOTE: Subroutine disp() has been executed. node: 264

 ***NOTE: Subroutine disp() has been executed. u(1): 4.22375E+05

 ***NOTE: Subroutine disp() has been executed.					coords(1): 40.000

 ***NOTE: Subroutine disp() has been executed.					coords(2): 0.0000

 ***NOTE: Subroutine disp() has been executed.					coords(3): 0.0000

 ***NOTE: Subroutine disp() has been executed. SET 				pore pressure: 
          1.23456E+05!

 ***NOTE: Subroutine disp() has been executed. node: 265

 ***NOTE: Subroutine disp() has been executed. u(1): 4.22375E+05

 ***NOTE: Subroutine disp() has been executed.					coords(1): 41.000

 ***NOTE: Subroutine disp() has been executed.					coords(2): 0.0000

 ***NOTE: Subroutine disp() has been executed.					coords(3): 0.0000

 ***NOTE: Subroutine disp() has been executed. SET 				pore pressure: 
          1.23456E+05!

 ***NOTE: Subroutine disp() has been executed. node: 266

 ***NOTE: Subroutine disp() has been executed. u(1): 4.22375E+05

 ***NOTE: Subroutine disp() has been executed.					coords(1): 42.000

 ***NOTE: Subroutine disp() has been executed.					coords(2): 0.0000

 ***NOTE: Subroutine disp() has been executed.					coords(3): 0.0000

 ***NOTE: Subroutine disp() has been executed. SET 				pore pressure: 
          1.23456E+05!

 ***NOTE: Subroutine disp() has been executed. node: 267

 ***NOTE: Subroutine disp() has been executed. u(1): 4.22375E+05

 ***NOTE: Subroutine disp() has been executed.					coords(1): 43.000

 ***NOTE: Subroutine disp() has been executed.					coords(2): 0.0000

 ***NOTE: Subroutine disp() has been executed.					coords(3): 0.0000

 ***NOTE: Subroutine disp() has been executed. SET 				pore pressure: 
          1.23456E+05!

 ***NOTE: Subroutine disp() has been executed. node: 268

 ***NOTE: Subroutine disp() has been executed. u(1): 4.22375E+05

 ***NOTE: Subroutine disp() has been executed.					coords(1): 44.000

 ***NOTE: Subroutine disp() has been executed.					coords(2): 0.0000

 ***NOTE: Subroutine disp() has been executed.					coords(3): 0.0000

 ***NOTE: Subroutine disp() has been executed. SET 				pore pressure: 
          1.23456E+05!

 ***NOTE: Subroutine disp() has been executed. node: 269

 ***NOTE: Subroutine disp() has been executed. u(1): 4.22375E+05

 ***NOTE: Subroutine disp() has been executed.					coords(1): 45.000

 ***NOTE: Subroutine disp() has been executed.					coords(2): 0.0000

 ***NOTE: Subroutine disp() has been executed.					coords(3): 0.0000

 ***NOTE: Subroutine disp() has been executed. SET 				pore pressure: 
          1.23456E+05!

 ***NOTE: Subroutine disp() has been executed. node: 270

 ***NOTE: Subroutine disp() has been executed. u(1): 4.22375E+05

 ***NOTE: Subroutine disp() has been executed.					coords(1): 46.000

 ***NOTE: Subroutine disp() has been executed.					coords(2): 0.0000

 ***NOTE: Subroutine disp() has been executed.					coords(3): 0.0000

 ***NOTE: Subroutine disp() has been executed. SET 				pore pressure: 
          1.23456E+05!

 ***NOTE: Subroutine disp() has been executed. node: 271

 ***NOTE: Subroutine disp() has been executed. u(1): 4.22375E+05

 ***NOTE: Subroutine disp() has been executed.					coords(1): 47.000

 ***NOTE: Subroutine disp() has been executed.					coords(2): 0.0000

 ***NOTE: Subroutine disp() has been executed.					coords(3): 0.0000

 ***NOTE: Subroutine disp() has been executed. SET 				pore pressure: 
          1.23456E+05!

 ***NOTE: Subroutine disp() has been executed. node: 272

 ***NOTE: Subroutine disp() has been executed. u(1): 4.22375E+05

 ***NOTE: Subroutine disp() has been executed.					coords(1): 48.000

 ***NOTE: Subroutine disp() has been executed.					coords(2): 0.0000

 ***NOTE: Subroutine disp() has been executed.					coords(3): 0.0000

 ***NOTE: Subroutine disp() has been executed. SET 				pore pressure: 
          1.23456E+05!

 ***NOTE: Subroutine disp() has been executed. node: 273

 ***NOTE: Subroutine disp() has been executed. u(1): 4.22375E+05

 ***NOTE: Subroutine disp() has been executed.					coords(1): 49.000

 ***NOTE: Subroutine disp() has been executed.					coords(2): 0.0000

 ***NOTE: Subroutine disp() has been executed.					coords(3): 0.0000

 ***NOTE: Subroutine disp() has been executed. SET 				pore pressure: 
          1.23456E+05!

 ***NOTE: Subroutine disp() has been executed. node: 9

 ***NOTE: Subroutine disp() has been executed. u(1): 4.22375E+05

 ***NOTE: Subroutine disp() has been executed.					coords(1): 50.000

 ***NOTE: Subroutine disp() has been executed.					coords(2): 0.0000

 ***NOTE: Subroutine disp() has been executed.					coords(3): 0.0000

 ***NOTE: Subroutine disp() has been executed. SET 				pore pressure: 
          1.23456E+05!

  NUMBER OF EQUATIONS =     18003     NUMBER OF RHS =    1
  NUMBER OF FLOATING PT. OPERATIONS =  6.27E+08

     CHECK POINT   START OF SOLVER    

     CHECK POINT  END OF SOLVER       

       ELAPSED USER TIME (SEC)      =  0.20000    
       ELAPSED SYSTEM TIME (SEC)    =   0.0000    
       ELAPSED TOTAL CPU TIME (SEC) =  0.20000    
       ELAPSED WALLCLOCK TIME (SEC) =          0

 ***NOTE: Subroutine disp() has been executed. node: 1

 ***NOTE: Subroutine disp() has been executed. u(1): 4.22375E+05

 ***NOTE: Subroutine disp() has been executed.					coords(1): 25.000

 ***NOTE: Subroutine disp() has been executed.					coords(2): 0.0000

 ***NOTE: Subroutine disp() has been executed.					coords(3): 0.0000

 ***NOTE: Subroutine disp() has been executed. SET 				pore pressure: 
          1.23456E+05!

 ***NOTE: Subroutine disp() has been executed. node: 105

 ***NOTE: Subroutine disp() has been executed. u(1): 4.22375E+05

 ***NOTE: Subroutine disp() has been executed.					coords(1): 24.000

 ***NOTE: Subroutine disp() has been executed.					coords(2): 0.0000

 ***NOTE: Subroutine disp() has been executed.					coords(3): 0.0000

 ***NOTE: Subroutine disp() has been executed. SET 				pore pressure: 
          1.23456E+05!

 ***NOTE: Subroutine disp() has been executed. node: 104

 ***NOTE: Subroutine disp() has been executed. u(1): 4.22375E+05

 ***NOTE: Subroutine disp() has been executed.					coords(1): 23.000

 ***NOTE: Subroutine disp() has been executed.					coords(2): 0.0000

 ***NOTE: Subroutine disp() has been executed.					coords(3): 0.0000

 ***NOTE: Subroutine disp() has been executed. SET 				pore pressure: 
          1.23456E+05!

 ***NOTE: Subroutine disp() has been executed. node: 103

 ***NOTE: Subroutine disp() has been executed. u(1): 4.22375E+05

 ***NOTE: Subroutine disp() has been executed.					coords(1): 22.000

 ***NOTE: Subroutine disp() has been executed.					coords(2): 0.0000

 ***NOTE: Subroutine disp() has been executed.					coords(3): 0.0000

 ***NOTE: Subroutine disp() has been executed. SET 				pore pressure: 
          1.23456E+05!

 ***NOTE: Subroutine disp() has been executed. node: 102

 ***NOTE: Subroutine disp() has been executed. u(1): 4.22375E+05

 ***NOTE: Subroutine disp() has been executed.					coords(1): 21.000

 ***NOTE: Subroutine disp() has been executed.					coords(2): 0.0000

 ***NOTE: Subroutine disp() has been executed.					coords(3): 0.0000

 ***NOTE: Subroutine disp() has been executed. SET 				pore pressure: 
          1.23456E+05!

 ***NOTE: Subroutine disp() has been executed. node: 101

 ***NOTE: Subroutine disp() has been executed. u(1): 4.22375E+05

 ***NOTE: Subroutine disp() has been executed.					coords(1): 20.000

 ***NOTE: Subroutine disp() has been executed.					coords(2): 0.0000

 ***NOTE: Subroutine disp() has been executed.					coords(3): 0.0000

 ***NOTE: Subroutine disp() has been executed. SET 				pore pressure: 
          1.23456E+05!

 ***NOTE: Subroutine disp() has been executed. node: 100

 ***NOTE: Subroutine disp() has been executed. u(1): 4.22375E+05

 ***NOTE: Subroutine disp() has been executed.					coords(1): 19.000

 ***NOTE: Subroutine disp() has been executed.					coords(2): 0.0000

 ***NOTE: Subroutine disp() has been executed.					coords(3): 0.0000

 ***NOTE: Subroutine disp() has been executed. SET 				pore pressure: 
          1.23456E+05!

 ***NOTE: Subroutine disp() has been executed. node: 99

 ***NOTE: Subroutine disp() has been executed. u(1): 4.22375E+05

 ***NOTE: Subroutine disp() has been executed.					coords(1): 18.000

 ***NOTE: Subroutine disp() has been executed.					coords(2): 0.0000

 ***NOTE: Subroutine disp() has been executed.					coords(3): 0.0000

 ***NOTE: Subroutine disp() has been executed. SET 				pore pressure: 
          1.23456E+05!

 ***NOTE: Subroutine disp() has been executed. node: 98

 ***NOTE: Subroutine disp() has been executed. u(1): 4.22375E+05

 ***NOTE: Subroutine disp() has been executed.					coords(1): 17.000

 ***NOTE: Subroutine disp() has been executed.					coords(2): 0.0000

 ***NOTE: Subroutine disp() has been executed.					coords(3): 0.0000

 ***NOTE: Subroutine disp() has been executed. SET 				pore pressure: 
          1.23456E+05!

 ***NOTE: Subroutine disp() has been executed. node: 97

 ***NOTE: Subroutine disp() has been executed. u(1): 4.22375E+05

 ***NOTE: Subroutine disp() has been executed.					coords(1): 16.000

 ***NOTE: Subroutine disp() has been executed.					coords(2): 0.0000

 ***NOTE: Subroutine disp() has been executed.					coords(3): 0.0000

 ***NOTE: Subroutine disp() has been executed. SET 				pore pressure: 
          1.23456E+05!

 ***NOTE: Subroutine disp() has been executed. node: 96

 ***NOTE: Subroutine disp() has been executed. u(1): 4.22375E+05

 ***NOTE: Subroutine disp() has been executed.					coords(1): 15.000

 ***NOTE: Subroutine disp() has been executed.					coords(2): 0.0000

 ***NOTE: Subroutine disp() has been executed.					coords(3): 0.0000

 ***NOTE: Subroutine disp() has been executed. SET 				pore pressure: 
          1.23456E+05!

 ***NOTE: Subroutine disp() has been executed. node: 95

 ***NOTE: Subroutine disp() has been executed. u(1): 4.22375E+05

 ***NOTE: Subroutine disp() has been executed.					coords(1): 14.000

 ***NOTE: Subroutine disp() has been executed.					coords(2): 0.0000

 ***NOTE: Subroutine disp() has been executed.					coords(3): 0.0000

 ***NOTE: Subroutine disp() has been executed. SET 				pore pressure: 
          1.23456E+05!

 ***NOTE: Subroutine disp() has been executed. node: 94

 ***NOTE: Subroutine disp() has been executed. u(1): 4.22375E+05

 ***NOTE: Subroutine disp() has been executed.					coords(1): 13.000

 ***NOTE: Subroutine disp() has been executed.					coords(2): 0.0000

 ***NOTE: Subroutine disp() has been executed.					coords(3): 0.0000

 ***NOTE: Subroutine disp() has been executed. SET 				pore pressure: 
          1.23456E+05!

 ***NOTE: Subroutine disp() has been executed. node: 93

 ***NOTE: Subroutine disp() has been executed. u(1): 4.22375E+05

 ***NOTE: Subroutine disp() has been executed.					coords(1): 12.000

 ***NOTE: Subroutine disp() has been executed.					coords(2): 0.0000

 ***NOTE: Subroutine disp() has been executed.					coords(3): 0.0000

 ***NOTE: Subroutine disp() has been executed. SET 				pore pressure: 
          1.23456E+05!

 ***NOTE: Subroutine disp() has been executed. node: 92

 ***NOTE: Subroutine disp() has been executed. u(1): 4.22375E+05

 ***NOTE: Subroutine disp() has been executed.					coords(1): 11.000

 ***NOTE: Subroutine disp() has been executed.					coords(2): 0.0000

 ***NOTE: Subroutine disp() has been executed.					coords(3): 0.0000

 ***NOTE: Subroutine disp() has been executed. SET 				pore pressure: 
          1.23456E+05!

 ***NOTE: Subroutine disp() has been executed. node: 91

 ***NOTE: Subroutine disp() has been executed. u(1): 4.22375E+05

 ***NOTE: Subroutine disp() has been executed.					coords(1): 10.000

 ***NOTE: Subroutine disp() has been executed.					coords(2): 0.0000

 ***NOTE: Subroutine disp() has been executed.					coords(3): 0.0000

 ***NOTE: Subroutine disp() has been executed. SET 				pore pressure: 
          1.23456E+05!

 ***NOTE: Subroutine disp() has been executed. node: 90

 ***NOTE: Subroutine disp() has been executed. u(1): 4.22375E+05

 ***NOTE: Subroutine disp() has been executed.					coords(1): 9.0000

 ***NOTE: Subroutine disp() has been executed.					coords(2): 0.0000

 ***NOTE: Subroutine disp() has been executed.					coords(3): 0.0000

 ***NOTE: Subroutine disp() has been executed. SET 				pore pressure: 
          1.23456E+05!

 ***NOTE: Subroutine disp() has been executed. node: 89

 ***NOTE: Subroutine disp() has been executed. u(1): 4.22375E+05

 ***NOTE: Subroutine disp() has been executed.					coords(1): 8.0000

 ***NOTE: Subroutine disp() has been executed.					coords(2): 0.0000

 ***NOTE: Subroutine disp() has been executed.					coords(3): 0.0000

 ***NOTE: Subroutine disp() has been executed. SET 				pore pressure: 
          1.23456E+05!

 ***NOTE: Subroutine disp() has been executed. node: 88

 ***NOTE: Subroutine disp() has been executed. u(1): 4.22375E+05

 ***NOTE: Subroutine disp() has been executed.					coords(1): 7.0000

 ***NOTE: Subroutine disp() has been executed.					coords(2): 0.0000

 ***NOTE: Subroutine disp() has been executed.					coords(3): 0.0000

 ***NOTE: Subroutine disp() has been executed. SET 				pore pressure: 
          1.23456E+05!

 ***NOTE: Subroutine disp() has been executed. node: 87

 ***NOTE: Subroutine disp() has been executed. u(1): 4.22375E+05

 ***NOTE: Subroutine disp() has been executed.					coords(1): 6.0000

 ***NOTE: Subroutine disp() has been executed.					coords(2): 0.0000

 ***NOTE: Subroutine disp() has been executed.					coords(3): 0.0000

 ***NOTE: Subroutine disp() has been executed. SET 				pore pressure: 
          1.23456E+05!

 ***NOTE: Subroutine disp() has been executed. node: 86

 ***NOTE: Subroutine disp() has been executed. u(1): 4.22375E+05

 ***NOTE: Subroutine disp() has been executed.					coords(1): 5.0000

 ***NOTE: Subroutine disp() has been executed.					coords(2): 0.0000

 ***NOTE: Subroutine disp() has been executed.					coords(3): 0.0000

 ***NOTE: Subroutine disp() has been executed. SET 				pore pressure: 
          1.23456E+05!

 ***NOTE: Subroutine disp() has been executed. node: 85

 ***NOTE: Subroutine disp() has been executed. u(1): 4.22375E+05

 ***NOTE: Subroutine disp() has been executed.					coords(1): 4.0000

 ***NOTE: Subroutine disp() has been executed.					coords(2): 0.0000

 ***NOTE: Subroutine disp() has been executed.					coords(3): 0.0000

 ***NOTE: Subroutine disp() has been executed. SET 				pore pressure: 
          1.23456E+05!

 ***NOTE: Subroutine disp() has been executed. node: 84

 ***NOTE: Subroutine disp() has been executed. u(1): 4.22375E+05

 ***NOTE: Subroutine disp() has been executed.					coords(1): 3.0000

 ***NOTE: Subroutine disp() has been executed.					coords(2): 0.0000

 ***NOTE: Subroutine disp() has been executed.					coords(3): 0.0000

 ***NOTE: Subroutine disp() has been executed. SET 				pore pressure: 
          1.23456E+05!

 ***NOTE: Subroutine disp() has been executed. node: 83

 ***NOTE: Subroutine disp() has been executed. u(1): 4.22375E+05

 ***NOTE: Subroutine disp() has been executed.					coords(1): 2.0000

 ***NOTE: Subroutine disp() has been executed.					coords(2): 0.0000

 ***NOTE: Subroutine disp() has been executed.					coords(3): 0.0000

 ***NOTE: Subroutine disp() has been executed. SET 				pore pressure: 
          1.23456E+05!

 ***NOTE: Subroutine disp() has been executed. node: 82

 ***NOTE: Subroutine disp() has been executed. u(1): 4.22375E+05

 ***NOTE: Subroutine disp() has been executed.					coords(1): 1.0000

 ***NOTE: Subroutine disp() has been executed.					coords(2): 0.0000

 ***NOTE: Subroutine disp() has been executed.					coords(3): 0.0000

 ***NOTE: Subroutine disp() has been executed. SET 				pore pressure: 
          1.23456E+05!

 ***NOTE: Subroutine disp() has been executed. node: 4

 ***NOTE: Subroutine disp() has been executed. u(1): 4.22375E+05

 ***NOTE: Subroutine disp() has been executed.					coords(1): 0.0000

 ***NOTE: Subroutine disp() has been executed.					coords(2): 0.0000

 ***NOTE: Subroutine disp() has been executed.					coords(3): 0.0000

 ***NOTE: Subroutine disp() has been executed. SET 				pore pressure: 
          1.23456E+05!

 ***NOTE: Subroutine disp() has been executed. node: 250

 ***NOTE: Subroutine disp() has been executed. u(1): 4.22375E+05

 ***NOTE: Subroutine disp() has been executed.					coords(1): 26.000

 ***NOTE: Subroutine disp() has been executed.					coords(2): 0.0000

 ***NOTE: Subroutine disp() has been executed.					coords(3): 0.0000

 ***NOTE: Subroutine disp() has been executed. SET 				pore pressure: 
          1.23456E+05!

 ***NOTE: Subroutine disp() has been executed. node: 251

 ***NOTE: Subroutine disp() has been executed. u(1): 4.22375E+05

 ***NOTE: Subroutine disp() has been executed.					coords(1): 27.000

 ***NOTE: Subroutine disp() has been executed.					coords(2): 0.0000

 ***NOTE: Subroutine disp() has been executed.					coords(3): 0.0000

 ***NOTE: Subroutine disp() has been executed. SET 				pore pressure: 
          1.23456E+05!

 ***NOTE: Subroutine disp() has been executed. node: 252

 ***NOTE: Subroutine disp() has been executed. u(1): 4.22375E+05

 ***NOTE: Subroutine disp() has been executed.					coords(1): 28.000

 ***NOTE: Subroutine disp() has been executed.					coords(2): 0.0000

 ***NOTE: Subroutine disp() has been executed.					coords(3): 0.0000

 ***NOTE: Subroutine disp() has been executed. SET 				pore pressure: 
          1.23456E+05!

 ***NOTE: Subroutine disp() has been executed. node: 253

 ***NOTE: Subroutine disp() has been executed. u(1): 4.22375E+05

 ***NOTE: Subroutine disp() has been executed.					coords(1): 29.000

 ***NOTE: Subroutine disp() has been executed.					coords(2): 0.0000

 ***NOTE: Subroutine disp() has been executed.					coords(3): 0.0000

 ***NOTE: Subroutine disp() has been executed. SET 				pore pressure: 
          1.23456E+05!

 ***NOTE: Subroutine disp() has been executed. node: 254

 ***NOTE: Subroutine disp() has been executed. u(1): 4.22375E+05

 ***NOTE: Subroutine disp() has been executed.					coords(1): 30.000

 ***NOTE: Subroutine disp() has been executed.					coords(2): 0.0000

 ***NOTE: Subroutine disp() has been executed.					coords(3): 0.0000

 ***NOTE: Subroutine disp() has been executed. SET 				pore pressure: 
          1.23456E+05!

 ***NOTE: Subroutine disp() has been executed. node: 255

 ***NOTE: Subroutine disp() has been executed. u(1): 4.22375E+05

 ***NOTE: Subroutine disp() has been executed.					coords(1): 31.000

 ***NOTE: Subroutine disp() has been executed.					coords(2): 0.0000

 ***NOTE: Subroutine disp() has been executed.					coords(3): 0.0000

 ***NOTE: Subroutine disp() has been executed. SET 				pore pressure: 
          1.23456E+05!

 ***NOTE: Subroutine disp() has been executed. node: 256

 ***NOTE: Subroutine disp() has been executed. u(1): 4.22375E+05

 ***NOTE: Subroutine disp() has been executed.					coords(1): 32.000

 ***NOTE: Subroutine disp() has been executed.					coords(2): 0.0000

 ***NOTE: Subroutine disp() has been executed.					coords(3): 0.0000

 ***NOTE: Subroutine disp() has been executed. SET 				pore pressure: 
          1.23456E+05!

 ***NOTE: Subroutine disp() has been executed. node: 257

 ***NOTE: Subroutine disp() has been executed. u(1): 4.22375E+05

 ***NOTE: Subroutine disp() has been executed.					coords(1): 33.000

 ***NOTE: Subroutine disp() has been executed.					coords(2): 0.0000

 ***NOTE: Subroutine disp() has been executed.					coords(3): 0.0000

 ***NOTE: Subroutine disp() has been executed. SET 				pore pressure: 
          1.23456E+05!

 ***NOTE: Subroutine disp() has been executed. node: 258

 ***NOTE: Subroutine disp() has been executed. u(1): 4.22375E+05

 ***NOTE: Subroutine disp() has been executed.					coords(1): 34.000

 ***NOTE: Subroutine disp() has been executed.					coords(2): 0.0000

 ***NOTE: Subroutine disp() has been executed.					coords(3): 0.0000

 ***NOTE: Subroutine disp() has been executed. SET 				pore pressure: 
          1.23456E+05!

 ***NOTE: Subroutine disp() has been executed. node: 259

 ***NOTE: Subroutine disp() has been executed. u(1): 4.22375E+05

 ***NOTE: Subroutine disp() has been executed.					coords(1): 35.000

 ***NOTE: Subroutine disp() has been executed.					coords(2): 0.0000

 ***NOTE: Subroutine disp() has been executed.					coords(3): 0.0000

 ***NOTE: Subroutine disp() has been executed. SET 				pore pressure: 
          1.23456E+05!

 ***NOTE: Subroutine disp() has been executed. node: 260

 ***NOTE: Subroutine disp() has been executed. u(1): 4.22375E+05

 ***NOTE: Subroutine disp() has been executed.					coords(1): 36.000

 ***NOTE: Subroutine disp() has been executed.					coords(2): 0.0000

 ***NOTE: Subroutine disp() has been executed.					coords(3): 0.0000

 ***NOTE: Subroutine disp() has been executed. SET 				pore pressure: 
          1.23456E+05!

 ***NOTE: Subroutine disp() has been executed. node: 261

 ***NOTE: Subroutine disp() has been executed. u(1): 4.22375E+05

 ***NOTE: Subroutine disp() has been executed.					coords(1): 37.000

 ***NOTE: Subroutine disp() has been executed.					coords(2): 0.0000

 ***NOTE: Subroutine disp() has been executed.					coords(3): 0.0000

 ***NOTE: Subroutine disp() has been executed. SET 				pore pressure: 
          1.23456E+05!

 ***NOTE: Subroutine disp() has been executed. node: 262

 ***NOTE: Subroutine disp() has been executed. u(1): 4.22375E+05

 ***NOTE: Subroutine disp() has been executed.					coords(1): 38.000

 ***NOTE: Subroutine disp() has been executed.					coords(2): 0.0000

 ***NOTE: Subroutine disp() has been executed.					coords(3): 0.0000

 ***NOTE: Subroutine disp() has been executed. SET 				pore pressure: 
          1.23456E+05!

 ***NOTE: Subroutine disp() has been executed. node: 263

 ***NOTE: Subroutine disp() has been executed. u(1): 4.22375E+05

 ***NOTE: Subroutine disp() has been executed.					coords(1): 39.000

 ***NOTE: Subroutine disp() has been executed.					coords(2): 0.0000

 ***NOTE: Subroutine disp() has been executed.					coords(3): 0.0000

 ***NOTE: Subroutine disp() has been executed. SET 				pore pressure: 
          1.23456E+05!

 ***NOTE: Subroutine disp() has been executed. node: 264

 ***NOTE: Subroutine disp() has been executed. u(1): 4.22375E+05

 ***NOTE: Subroutine disp() has been executed.					coords(1): 40.000

 ***NOTE: Subroutine disp() has been executed.					coords(2): 0.0000

 ***NOTE: Subroutine disp() has been executed.					coords(3): 0.0000

 ***NOTE: Subroutine disp() has been executed. SET 				pore pressure: 
          1.23456E+05!

 ***NOTE: Subroutine disp() has been executed. node: 265

 ***NOTE: Subroutine disp() has been executed. u(1): 4.22375E+05

 ***NOTE: Subroutine disp() has been executed.					coords(1): 41.000

 ***NOTE: Subroutine disp() has been executed.					coords(2): 0.0000

 ***NOTE: Subroutine disp() has been executed.					coords(3): 0.0000

 ***NOTE: Subroutine disp() has been executed. SET 				pore pressure: 
          1.23456E+05!

 ***NOTE: Subroutine disp() has been executed. node: 266

 ***NOTE: Subroutine disp() has been executed. u(1): 4.22375E+05

 ***NOTE: Subroutine disp() has been executed.					coords(1): 42.000

 ***NOTE: Subroutine disp() has been executed.					coords(2): 0.0000

 ***NOTE: Subroutine disp() has been executed.					coords(3): 0.0000

 ***NOTE: Subroutine disp() has been executed. SET 				pore pressure: 
          1.23456E+05!

 ***NOTE: Subroutine disp() has been executed. node: 267

 ***NOTE: Subroutine disp() has been executed. u(1): 4.22375E+05

 ***NOTE: Subroutine disp() has been executed.					coords(1): 43.000

 ***NOTE: Subroutine disp() has been executed.					coords(2): 0.0000

 ***NOTE: Subroutine disp() has been executed.					coords(3): 0.0000

 ***NOTE: Subroutine disp() has been executed. SET 				pore pressure: 
          1.23456E+05!

 ***NOTE: Subroutine disp() has been executed. node: 268

 ***NOTE: Subroutine disp() has been executed. u(1): 4.22375E+05

 ***NOTE: Subroutine disp() has been executed.					coords(1): 44.000

 ***NOTE: Subroutine disp() has been executed.					coords(2): 0.0000

 ***NOTE: Subroutine disp() has been executed.					coords(3): 0.0000

 ***NOTE: Subroutine disp() has been executed. SET 				pore pressure: 
          1.23456E+05!

 ***NOTE: Subroutine disp() has been executed. node: 269

 ***NOTE: Subroutine disp() has been executed. u(1): 4.22375E+05

 ***NOTE: Subroutine disp() has been executed.					coords(1): 45.000

 ***NOTE: Subroutine disp() has been executed.					coords(2): 0.0000

 ***NOTE: Subroutine disp() has been executed.					coords(3): 0.0000

 ***NOTE: Subroutine disp() has been executed. SET 				pore pressure: 
          1.23456E+05!

 ***NOTE: Subroutine disp() has been executed. node: 270

 ***NOTE: Subroutine disp() has been executed. u(1): 4.22375E+05

 ***NOTE: Subroutine disp() has been executed.					coords(1): 46.000

 ***NOTE: Subroutine disp() has been executed.					coords(2): 0.0000

 ***NOTE: Subroutine disp() has been executed.					coords(3): 0.0000

 ***NOTE: Subroutine disp() has been executed. SET 				pore pressure: 
          1.23456E+05!

 ***NOTE: Subroutine disp() has been executed. node: 271

 ***NOTE: Subroutine disp() has been executed. u(1): 4.22375E+05

 ***NOTE: Subroutine disp() has been executed.					coords(1): 47.000

 ***NOTE: Subroutine disp() has been executed.					coords(2): 0.0000

 ***NOTE: Subroutine disp() has been executed.					coords(3): 0.0000

 ***NOTE: Subroutine disp() has been executed. SET 				pore pressure: 
          1.23456E+05!

 ***NOTE: Subroutine disp() has been executed. node: 272

 ***NOTE: Subroutine disp() has been executed. u(1): 4.22375E+05

 ***NOTE: Subroutine disp() has been executed.					coords(1): 48.000

 ***NOTE: Subroutine disp() has been executed.					coords(2): 0.0000

 ***NOTE: Subroutine disp() has been executed.					coords(3): 0.0000

 ***NOTE: Subroutine disp() has been executed. SET 				pore pressure: 
          1.23456E+05!

 ***NOTE: Subroutine disp() has been executed. node: 273

 ***NOTE: Subroutine disp() has been executed. u(1): 4.22375E+05

 ***NOTE: Subroutine disp() has been executed.					coords(1): 49.000

 ***NOTE: Subroutine disp() has been executed.					coords(2): 0.0000

 ***NOTE: Subroutine disp() has been executed.					coords(3): 0.0000

 ***NOTE: Subroutine disp() has been executed. SET 				pore pressure: 
          1.23456E+05!

 ***NOTE: Subroutine disp() has been executed. node: 9

 ***NOTE: Subroutine disp() has been executed. u(1): 4.22375E+05

 ***NOTE: Subroutine disp() has been executed.					coords(1): 50.000

 ***NOTE: Subroutine disp() has been executed.					coords(2): 0.0000

 ***NOTE: Subroutine disp() has been executed.					coords(3): 0.0000

 ***NOTE: Subroutine disp() has been executed. SET 				pore pressure: 
          1.23456E+05!

               CONVERGENCE CHECKS FOR EQUILIBRIUM ITERATION     1


 AVERAGE FORCE                      8.749E+04   TIME AVG. FORCE       8.749E+04
 LARGEST RESIDUAL FORCE             -14.9       AT NODE       3648   DOF  2
   INSTANCE: PART_1-1                                                                        
 LARGEST INCREMENT OF DISP.        -1.793E-02   AT NODE       3901   DOF  2
   INSTANCE: PART_1-1                                                                        
 LARGEST CORRECTION TO DISP.       -1.793E-02   AT NODE       3901   DOF  2
   INSTANCE: PART_1-1                                                                        
          DISP.    CORRECTION TOO LARGE COMPARED TO DISP.    INCREMENT

 AVERAGE VOL. FLUX                  2.358E-04   TIME AVG. VOL. FLUX   2.358E-04
 LARGEST RESIDUAL VOL. FLUX        -4.299E-17   AT NODE        988   DOF  8
   INSTANCE: PART_1-1                                                                        
 LARGEST INCREMENT OF P.PRESS.     -3.670E+05   AT NODE          1   DOF  8
   INSTANCE: PART_1-1                                                                        
 LARGEST CORRECTION TO P.PRESS.    -3.670E+05   AT NODE          1   DOF  8
   INSTANCE: PART_1-1                                                                        
          THE VOL. FLUX EQUILIBRIUM RESPONSE WAS LINEAR IN THIS INCREMENT

  NUMBER OF EQUATIONS =     18003     NUMBER OF RHS =    1
  NUMBER OF FLOATING PT. OPERATIONS =  6.27E+08

     CHECK POINT   START OF SOLVER    

     CHECK POINT  END OF SOLVER       

       ELAPSED USER TIME (SEC)      =  0.10000    
       ELAPSED SYSTEM TIME (SEC)    =   0.0000    
       ELAPSED TOTAL CPU TIME (SEC) =  0.10000    
       ELAPSED WALLCLOCK TIME (SEC) =          1

 ***NOTE: Subroutine disp() has been executed. node: 1

 ***NOTE: Subroutine disp() has been executed. u(1): 4.22375E+05

 ***NOTE: Subroutine disp() has been executed.					coords(1): 25.000

 ***NOTE: Subroutine disp() has been executed.					coords(2): 0.0000

 ***NOTE: Subroutine disp() has been executed.					coords(3): 0.0000

 ***NOTE: Subroutine disp() has been executed. SET 				pore pressure: 
          1.23456E+05!

 ***NOTE: Subroutine disp() has been executed. node: 105

 ***NOTE: Subroutine disp() has been executed. u(1): 4.22375E+05

 ***NOTE: Subroutine disp() has been executed.					coords(1): 24.000

 ***NOTE: Subroutine disp() has been executed.					coords(2): 0.0000

 ***NOTE: Subroutine disp() has been executed.					coords(3): 0.0000

 ***NOTE: Subroutine disp() has been executed. SET 				pore pressure: 
          1.23456E+05!

 ***NOTE: Subroutine disp() has been executed. node: 104

 ***NOTE: Subroutine disp() has been executed. u(1): 4.22375E+05

 ***NOTE: Subroutine disp() has been executed.					coords(1): 23.000

 ***NOTE: Subroutine disp() has been executed.					coords(2): 0.0000

 ***NOTE: Subroutine disp() has been executed.					coords(3): 0.0000

 ***NOTE: Subroutine disp() has been executed. SET 				pore pressure: 
          1.23456E+05!

 ***NOTE: Subroutine disp() has been executed. node: 103

 ***NOTE: Subroutine disp() has been executed. u(1): 4.22375E+05

 ***NOTE: Subroutine disp() has been executed.					coords(1): 22.000

 ***NOTE: Subroutine disp() has been executed.					coords(2): 0.0000

 ***NOTE: Subroutine disp() has been executed.					coords(3): 0.0000

 ***NOTE: Subroutine disp() has been executed. SET 				pore pressure: 
          1.23456E+05!

 ***NOTE: Subroutine disp() has been executed. node: 102

 ***NOTE: Subroutine disp() has been executed. u(1): 4.22375E+05

 ***NOTE: Subroutine disp() has been executed.					coords(1): 21.000

 ***NOTE: Subroutine disp() has been executed.					coords(2): 0.0000

 ***NOTE: Subroutine disp() has been executed.					coords(3): 0.0000

 ***NOTE: Subroutine disp() has been executed. SET 				pore pressure: 
          1.23456E+05!

 ***NOTE: Subroutine disp() has been executed. node: 101

 ***NOTE: Subroutine disp() has been executed. u(1): 4.22375E+05

 ***NOTE: Subroutine disp() has been executed.					coords(1): 20.000

 ***NOTE: Subroutine disp() has been executed.					coords(2): 0.0000

 ***NOTE: Subroutine disp() has been executed.					coords(3): 0.0000

 ***NOTE: Subroutine disp() has been executed. SET 				pore pressure: 
          1.23456E+05!

 ***NOTE: Subroutine disp() has been executed. node: 100

 ***NOTE: Subroutine disp() has been executed. u(1): 4.22375E+05

 ***NOTE: Subroutine disp() has been executed.					coords(1): 19.000

 ***NOTE: Subroutine disp() has been executed.					coords(2): 0.0000

 ***NOTE: Subroutine disp() has been executed.					coords(3): 0.0000

 ***NOTE: Subroutine disp() has been executed. SET 				pore pressure: 
          1.23456E+05!

 ***NOTE: Subroutine disp() has been executed. node: 99

 ***NOTE: Subroutine disp() has been executed. u(1): 4.22375E+05

 ***NOTE: Subroutine disp() has been executed.					coords(1): 18.000

 ***NOTE: Subroutine disp() has been executed.					coords(2): 0.0000

 ***NOTE: Subroutine disp() has been executed.					coords(3): 0.0000

 ***NOTE: Subroutine disp() has been executed. SET 				pore pressure: 
          1.23456E+05!

 ***NOTE: Subroutine disp() has been executed. node: 98

 ***NOTE: Subroutine disp() has been executed. u(1): 4.22375E+05

 ***NOTE: Subroutine disp() has been executed.					coords(1): 17.000

 ***NOTE: Subroutine disp() has been executed.					coords(2): 0.0000

 ***NOTE: Subroutine disp() has been executed.					coords(3): 0.0000

 ***NOTE: Subroutine disp() has been executed. SET 				pore pressure: 
          1.23456E+05!

 ***NOTE: Subroutine disp() has been executed. node: 97

 ***NOTE: Subroutine disp() has been executed. u(1): 4.22375E+05

 ***NOTE: Subroutine disp() has been executed.					coords(1): 16.000

 ***NOTE: Subroutine disp() has been executed.					coords(2): 0.0000

 ***NOTE: Subroutine disp() has been executed.					coords(3): 0.0000

 ***NOTE: Subroutine disp() has been executed. SET 				pore pressure: 
          1.23456E+05!

 ***NOTE: Subroutine disp() has been executed. node: 96

 ***NOTE: Subroutine disp() has been executed. u(1): 4.22375E+05

 ***NOTE: Subroutine disp() has been executed.					coords(1): 15.000

 ***NOTE: Subroutine disp() has been executed.					coords(2): 0.0000

 ***NOTE: Subroutine disp() has been executed.					coords(3): 0.0000

 ***NOTE: Subroutine disp() has been executed. SET 				pore pressure: 
          1.23456E+05!

 ***NOTE: Subroutine disp() has been executed. node: 95

 ***NOTE: Subroutine disp() has been executed. u(1): 4.22375E+05

 ***NOTE: Subroutine disp() has been executed.					coords(1): 14.000

 ***NOTE: Subroutine disp() has been executed.					coords(2): 0.0000

 ***NOTE: Subroutine disp() has been executed.					coords(3): 0.0000

 ***NOTE: Subroutine disp() has been executed. SET 				pore pressure: 
          1.23456E+05!

 ***NOTE: Subroutine disp() has been executed. node: 94

 ***NOTE: Subroutine disp() has been executed. u(1): 4.22375E+05

 ***NOTE: Subroutine disp() has been executed.					coords(1): 13.000

 ***NOTE: Subroutine disp() has been executed.					coords(2): 0.0000

 ***NOTE: Subroutine disp() has been executed.					coords(3): 0.0000

 ***NOTE: Subroutine disp() has been executed. SET 				pore pressure: 
          1.23456E+05!

 ***NOTE: Subroutine disp() has been executed. node: 93

 ***NOTE: Subroutine disp() has been executed. u(1): 4.22375E+05

 ***NOTE: Subroutine disp() has been executed.					coords(1): 12.000

 ***NOTE: Subroutine disp() has been executed.					coords(2): 0.0000

 ***NOTE: Subroutine disp() has been executed.					coords(3): 0.0000

 ***NOTE: Subroutine disp() has been executed. SET 				pore pressure: 
          1.23456E+05!

 ***NOTE: Subroutine disp() has been executed. node: 92

 ***NOTE: Subroutine disp() has been executed. u(1): 4.22375E+05

 ***NOTE: Subroutine disp() has been executed.					coords(1): 11.000

 ***NOTE: Subroutine disp() has been executed.					coords(2): 0.0000

 ***NOTE: Subroutine disp() has been executed.					coords(3): 0.0000

 ***NOTE: Subroutine disp() has been executed. SET 				pore pressure: 
          1.23456E+05!

 ***NOTE: Subroutine disp() has been executed. node: 91

 ***NOTE: Subroutine disp() has been executed. u(1): 4.22375E+05

 ***NOTE: Subroutine disp() has been executed.					coords(1): 10.000

 ***NOTE: Subroutine disp() has been executed.					coords(2): 0.0000

 ***NOTE: Subroutine disp() has been executed.					coords(3): 0.0000

 ***NOTE: Subroutine disp() has been executed. SET 				pore pressure: 
          1.23456E+05!

 ***NOTE: Subroutine disp() has been executed. node: 90

 ***NOTE: Subroutine disp() has been executed. u(1): 4.22375E+05

 ***NOTE: Subroutine disp() has been executed.					coords(1): 9.0000

 ***NOTE: Subroutine disp() has been executed.					coords(2): 0.0000

 ***NOTE: Subroutine disp() has been executed.					coords(3): 0.0000

 ***NOTE: Subroutine disp() has been executed. SET 				pore pressure: 
          1.23456E+05!

 ***NOTE: Subroutine disp() has been executed. node: 89

 ***NOTE: Subroutine disp() has been executed. u(1): 4.22375E+05

 ***NOTE: Subroutine disp() has been executed.					coords(1): 8.0000

 ***NOTE: Subroutine disp() has been executed.					coords(2): 0.0000

 ***NOTE: Subroutine disp() has been executed.					coords(3): 0.0000

 ***NOTE: Subroutine disp() has been executed. SET 				pore pressure: 
          1.23456E+05!

 ***NOTE: Subroutine disp() has been executed. node: 88

 ***NOTE: Subroutine disp() has been executed. u(1): 4.22375E+05

 ***NOTE: Subroutine disp() has been executed.					coords(1): 7.0000

 ***NOTE: Subroutine disp() has been executed.					coords(2): 0.0000

 ***NOTE: Subroutine disp() has been executed.					coords(3): 0.0000

 ***NOTE: Subroutine disp() has been executed. SET 				pore pressure: 
          1.23456E+05!

 ***NOTE: Subroutine disp() has been executed. node: 87

 ***NOTE: Subroutine disp() has been executed. u(1): 4.22375E+05

 ***NOTE: Subroutine disp() has been executed.					coords(1): 6.0000

 ***NOTE: Subroutine disp() has been executed.					coords(2): 0.0000

 ***NOTE: Subroutine disp() has been executed.					coords(3): 0.0000

 ***NOTE: Subroutine disp() has been executed. SET 				pore pressure: 
          1.23456E+05!

 ***NOTE: Subroutine disp() has been executed. node: 86

 ***NOTE: Subroutine disp() has been executed. u(1): 4.22375E+05

 ***NOTE: Subroutine disp() has been executed.					coords(1): 5.0000

 ***NOTE: Subroutine disp() has been executed.					coords(2): 0.0000

 ***NOTE: Subroutine disp() has been executed.					coords(3): 0.0000

 ***NOTE: Subroutine disp() has been executed. SET 				pore pressure: 
          1.23456E+05!

 ***NOTE: Subroutine disp() has been executed. node: 85

 ***NOTE: Subroutine disp() has been executed. u(1): 4.22375E+05

 ***NOTE: Subroutine disp() has been executed.					coords(1): 4.0000

 ***NOTE: Subroutine disp() has been executed.					coords(2): 0.0000

 ***NOTE: Subroutine disp() has been executed.					coords(3): 0.0000

 ***NOTE: Subroutine disp() has been executed. SET 				pore pressure: 
          1.23456E+05!

 ***NOTE: Subroutine disp() has been executed. node: 84

 ***NOTE: Subroutine disp() has been executed. u(1): 4.22375E+05

 ***NOTE: Subroutine disp() has been executed.					coords(1): 3.0000

 ***NOTE: Subroutine disp() has been executed.					coords(2): 0.0000

 ***NOTE: Subroutine disp() has been executed.					coords(3): 0.0000

 ***NOTE: Subroutine disp() has been executed. SET 				pore pressure: 
          1.23456E+05!

 ***NOTE: Subroutine disp() has been executed. node: 83

 ***NOTE: Subroutine disp() has been executed. u(1): 4.22375E+05

 ***NOTE: Subroutine disp() has been executed.					coords(1): 2.0000

 ***NOTE: Subroutine disp() has been executed.					coords(2): 0.0000

 ***NOTE: Subroutine disp() has been executed.					coords(3): 0.0000

 ***NOTE: Subroutine disp() has been executed. SET 				pore pressure: 
          1.23456E+05!

 ***NOTE: Subroutine disp() has been executed. node: 82

 ***NOTE: Subroutine disp() has been executed. u(1): 4.22375E+05

 ***NOTE: Subroutine disp() has been executed.					coords(1): 1.0000

 ***NOTE: Subroutine disp() has been executed.					coords(2): 0.0000

 ***NOTE: Subroutine disp() has been executed.					coords(3): 0.0000

 ***NOTE: Subroutine disp() has been executed. SET 				pore pressure: 
          1.23456E+05!

 ***NOTE: Subroutine disp() has been executed. node: 4

 ***NOTE: Subroutine disp() has been executed. u(1): 4.22375E+05

 ***NOTE: Subroutine disp() has been executed.					coords(1): 0.0000

 ***NOTE: Subroutine disp() has been executed.					coords(2): 0.0000

 ***NOTE: Subroutine disp() has been executed.					coords(3): 0.0000

 ***NOTE: Subroutine disp() has been executed. SET 				pore pressure: 
          1.23456E+05!

 ***NOTE: Subroutine disp() has been executed. node: 250

 ***NOTE: Subroutine disp() has been executed. u(1): 4.22375E+05

 ***NOTE: Subroutine disp() has been executed.					coords(1): 26.000

 ***NOTE: Subroutine disp() has been executed.					coords(2): 0.0000

 ***NOTE: Subroutine disp() has been executed.					coords(3): 0.0000

 ***NOTE: Subroutine disp() has been executed. SET 				pore pressure: 
          1.23456E+05!

 ***NOTE: Subroutine disp() has been executed. node: 251

 ***NOTE: Subroutine disp() has been executed. u(1): 4.22375E+05

 ***NOTE: Subroutine disp() has been executed.					coords(1): 27.000

 ***NOTE: Subroutine disp() has been executed.					coords(2): 0.0000

 ***NOTE: Subroutine disp() has been executed.					coords(3): 0.0000

 ***NOTE: Subroutine disp() has been executed. SET 				pore pressure: 
          1.23456E+05!

 ***NOTE: Subroutine disp() has been executed. node: 252

 ***NOTE: Subroutine disp() has been executed. u(1): 4.22375E+05

 ***NOTE: Subroutine disp() has been executed.					coords(1): 28.000

 ***NOTE: Subroutine disp() has been executed.					coords(2): 0.0000

 ***NOTE: Subroutine disp() has been executed.					coords(3): 0.0000

 ***NOTE: Subroutine disp() has been executed. SET 				pore pressure: 
          1.23456E+05!

 ***NOTE: Subroutine disp() has been executed. node: 253

 ***NOTE: Subroutine disp() has been executed. u(1): 4.22375E+05

 ***NOTE: Subroutine disp() has been executed.					coords(1): 29.000

 ***NOTE: Subroutine disp() has been executed.					coords(2): 0.0000

 ***NOTE: Subroutine disp() has been executed.					coords(3): 0.0000

 ***NOTE: Subroutine disp() has been executed. SET 				pore pressure: 
          1.23456E+05!

 ***NOTE: Subroutine disp() has been executed. node: 254

 ***NOTE: Subroutine disp() has been executed. u(1): 4.22375E+05

 ***NOTE: Subroutine disp() has been executed.					coords(1): 30.000

 ***NOTE: Subroutine disp() has been executed.					coords(2): 0.0000

 ***NOTE: Subroutine disp() has been executed.					coords(3): 0.0000

 ***NOTE: Subroutine disp() has been executed. SET 				pore pressure: 
          1.23456E+05!

 ***NOTE: Subroutine disp() has been executed. node: 255

 ***NOTE: Subroutine disp() has been executed. u(1): 4.22375E+05

 ***NOTE: Subroutine disp() has been executed.					coords(1): 31.000

 ***NOTE: Subroutine disp() has been executed.					coords(2): 0.0000

 ***NOTE: Subroutine disp() has been executed.					coords(3): 0.0000

 ***NOTE: Subroutine disp() has been executed. SET 				pore pressure: 
          1.23456E+05!

 ***NOTE: Subroutine disp() has been executed. node: 256

 ***NOTE: Subroutine disp() has been executed. u(1): 4.22375E+05

 ***NOTE: Subroutine disp() has been executed.					coords(1): 32.000

 ***NOTE: Subroutine disp() has been executed.					coords(2): 0.0000

 ***NOTE: Subroutine disp() has been executed.					coords(3): 0.0000

 ***NOTE: Subroutine disp() has been executed. SET 				pore pressure: 
          1.23456E+05!

 ***NOTE: Subroutine disp() has been executed. node: 257

 ***NOTE: Subroutine disp() has been executed. u(1): 4.22375E+05

 ***NOTE: Subroutine disp() has been executed.					coords(1): 33.000

 ***NOTE: Subroutine disp() has been executed.					coords(2): 0.0000

 ***NOTE: Subroutine disp() has been executed.					coords(3): 0.0000

 ***NOTE: Subroutine disp() has been executed. SET 				pore pressure: 
          1.23456E+05!

 ***NOTE: Subroutine disp() has been executed. node: 258

 ***NOTE: Subroutine disp() has been executed. u(1): 4.22375E+05

 ***NOTE: Subroutine disp() has been executed.					coords(1): 34.000

 ***NOTE: Subroutine disp() has been executed.					coords(2): 0.0000

 ***NOTE: Subroutine disp() has been executed.					coords(3): 0.0000

 ***NOTE: Subroutine disp() has been executed. SET 				pore pressure: 
          1.23456E+05!

 ***NOTE: Subroutine disp() has been executed. node: 259

 ***NOTE: Subroutine disp() has been executed. u(1): 4.22375E+05

 ***NOTE: Subroutine disp() has been executed.					coords(1): 35.000

 ***NOTE: Subroutine disp() has been executed.					coords(2): 0.0000

 ***NOTE: Subroutine disp() has been executed.					coords(3): 0.0000

 ***NOTE: Subroutine disp() has been executed. SET 				pore pressure: 
          1.23456E+05!

 ***NOTE: Subroutine disp() has been executed. node: 260

 ***NOTE: Subroutine disp() has been executed. u(1): 4.22375E+05

 ***NOTE: Subroutine disp() has been executed.					coords(1): 36.000

 ***NOTE: Subroutine disp() has been executed.					coords(2): 0.0000

 ***NOTE: Subroutine disp() has been executed.					coords(3): 0.0000

 ***NOTE: Subroutine disp() has been executed. SET 				pore pressure: 
          1.23456E+05!

 ***NOTE: Subroutine disp() has been executed. node: 261

 ***NOTE: Subroutine disp() has been executed. u(1): 4.22375E+05

 ***NOTE: Subroutine disp() has been executed.					coords(1): 37.000

 ***NOTE: Subroutine disp() has been executed.					coords(2): 0.0000

 ***NOTE: Subroutine disp() has been executed.					coords(3): 0.0000

 ***NOTE: Subroutine disp() has been executed. SET 				pore pressure: 
          1.23456E+05!

 ***NOTE: Subroutine disp() has been executed. node: 262

 ***NOTE: Subroutine disp() has been executed. u(1): 4.22375E+05

 ***NOTE: Subroutine disp() has been executed.					coords(1): 38.000

 ***NOTE: Subroutine disp() has been executed.					coords(2): 0.0000

 ***NOTE: Subroutine disp() has been executed.					coords(3): 0.0000

 ***NOTE: Subroutine disp() has been executed. SET 				pore pressure: 
          1.23456E+05!

 ***NOTE: Subroutine disp() has been executed. node: 263

 ***NOTE: Subroutine disp() has been executed. u(1): 4.22375E+05

 ***NOTE: Subroutine disp() has been executed.					coords(1): 39.000

 ***NOTE: Subroutine disp() has been executed.					coords(2): 0.0000

 ***NOTE: Subroutine disp() has been executed.					coords(3): 0.0000

 ***NOTE: Subroutine disp() has been executed. SET 				pore pressure: 
          1.23456E+05!

 ***NOTE: Subroutine disp() has been executed. node: 264

 ***NOTE: Subroutine disp() has been executed. u(1): 4.22375E+05

 ***NOTE: Subroutine disp() has been executed.					coords(1): 40.000

 ***NOTE: Subroutine disp() has been executed.					coords(2): 0.0000

 ***NOTE: Subroutine disp() has been executed.					coords(3): 0.0000

 ***NOTE: Subroutine disp() has been executed. SET 				pore pressure: 
          1.23456E+05!

 ***NOTE: Subroutine disp() has been executed. node: 265

 ***NOTE: Subroutine disp() has been executed. u(1): 4.22375E+05

 ***NOTE: Subroutine disp() has been executed.					coords(1): 41.000

 ***NOTE: Subroutine disp() has been executed.					coords(2): 0.0000

 ***NOTE: Subroutine disp() has been executed.					coords(3): 0.0000

 ***NOTE: Subroutine disp() has been executed. SET 				pore pressure: 
          1.23456E+05!

 ***NOTE: Subroutine disp() has been executed. node: 266

 ***NOTE: Subroutine disp() has been executed. u(1): 4.22375E+05

 ***NOTE: Subroutine disp() has been executed.					coords(1): 42.000

 ***NOTE: Subroutine disp() has been executed.					coords(2): 0.0000

 ***NOTE: Subroutine disp() has been executed.					coords(3): 0.0000

 ***NOTE: Subroutine disp() has been executed. SET 				pore pressure: 
          1.23456E+05!

 ***NOTE: Subroutine disp() has been executed. node: 267

 ***NOTE: Subroutine disp() has been executed. u(1): 4.22375E+05

 ***NOTE: Subroutine disp() has been executed.					coords(1): 43.000

[...]

 ***NOTE: Subroutine disp() has been executed.					coords(2): 0.0000

 ***NOTE: Subroutine disp() has been executed.					coords(3): 0.0000

 ***NOTE: Subroutine disp() has been executed. node: 104

 ***NOTE: Subroutine disp() has been executed. u(1): 0.0000

 ***NOTE: Subroutine disp() has been executed.					coords(1): 23.000

 ***NOTE: Subroutine disp() has been executed.					coords(2): 0.0000

 ***NOTE: Subroutine disp() has been executed.					coords(3): 0.0000

 ***NOTE: Subroutine disp() has been executed. node: 103

 ***NOTE: Subroutine disp() has been executed. u(1): 0.0000

 ***NOTE: Subroutine disp() has been executed.					coords(1): 22.000

 ***NOTE: Subroutine disp() has been executed.					coords(2): 0.0000

 ***NOTE: Subroutine disp() has been executed.					coords(3): 0.0000

 ***NOTE: Subroutine disp() has been executed. node: 102

 ***NOTE: Subroutine disp() has been executed. u(1): 0.0000

 ***NOTE: Subroutine disp() has been executed.					coords(1): 21.000

 ***NOTE: Subroutine disp() has been executed.					coords(2): 0.0000

 ***NOTE: Subroutine disp() has been executed.					coords(3): 0.0000

 ***NOTE: Subroutine disp() has been executed. node: 101

 ***NOTE: Subroutine disp() has been executed. u(1): 0.0000

 ***NOTE: Subroutine disp() has been executed.					coords(1): 20.000

 ***NOTE: Subroutine disp() has been executed.					coords(2): 0.0000

 ***NOTE: Subroutine disp() has been executed.					coords(3): 0.0000

 ***NOTE: Subroutine disp() has been executed. node: 100

 ***NOTE: Subroutine disp() has been executed. u(1): 0.0000

 ***NOTE: Subroutine disp() has been executed.					coords(1): 19.000

 ***NOTE: Subroutine disp() has been executed.					coords(2): 0.0000

 ***NOTE: Subroutine disp() has been executed.					coords(3): 0.0000

 ***NOTE: Subroutine disp() has been executed. node: 99

 ***NOTE: Subroutine disp() has been executed. u(1): 0.0000

 ***NOTE: Subroutine disp() has been executed.					coords(1): 18.000

 ***NOTE: Subroutine disp() has been executed.					coords(2): 0.0000

 ***NOTE: Subroutine disp() has been executed.					coords(3): 0.0000

 ***NOTE: Subroutine disp() has been executed. node: 98

 ***NOTE: Subroutine disp() has been executed. u(1): 0.0000

 ***NOTE: Subroutine disp() has been executed.					coords(1): 17.000

 ***NOTE: Subroutine disp() has been executed.					coords(2): 0.0000

 ***NOTE: Subroutine disp() has been executed.					coords(3): 0.0000

 ***NOTE: Subroutine disp() has been executed. node: 97

 ***NOTE: Subroutine disp() has been executed. u(1): 0.0000

 ***NOTE: Subroutine disp() has been executed.					coords(1): 16.000

 ***NOTE: Subroutine disp() has been executed.					coords(2): 0.0000

 ***NOTE: Subroutine disp() has been executed.					coords(3): 0.0000

 ***NOTE: Subroutine disp() has been executed. node: 96

 ***NOTE: Subroutine disp() has been executed. u(1): 0.0000

 ***NOTE: Subroutine disp() has been executed.					coords(1): 15.000

 ***NOTE: Subroutine disp() has been executed.					coords(2): 0.0000

 ***NOTE: Subroutine disp() has been executed.					coords(3): 0.0000

 ***NOTE: Subroutine disp() has been executed. node: 95

 ***NOTE: Subroutine disp() has been executed. u(1): 0.0000

 ***NOTE: Subroutine disp() has been executed.					coords(1): 14.000

 ***NOTE: Subroutine disp() has been executed.					coords(2): 0.0000

 ***NOTE: Subroutine disp() has been executed.					coords(3): 0.0000

 ***NOTE: Subroutine disp() has been executed. node: 94

 ***NOTE: Subroutine disp() has been executed. u(1): 0.0000

 ***NOTE: Subroutine disp() has been executed.					coords(1): 13.000

 ***NOTE: Subroutine disp() has been executed.					coords(2): 0.0000

 ***NOTE: Subroutine disp() has been executed.					coords(3): 0.0000

 ***NOTE: Subroutine disp() has been executed. node: 93

 ***NOTE: Subroutine disp() has been executed. u(1): 0.0000

 ***NOTE: Subroutine disp() has been executed.					coords(1): 12.000

 ***NOTE: Subroutine disp() has been executed.					coords(2): 0.0000

 ***NOTE: Subroutine disp() has been executed.					coords(3): 0.0000

 ***NOTE: Subroutine disp() has been executed. node: 92

 ***NOTE: Subroutine disp() has been executed. u(1): 0.0000

 ***NOTE: Subroutine disp() has been executed.					coords(1): 11.000

 ***NOTE: Subroutine disp() has been executed.					coords(2): 0.0000

 ***NOTE: Subroutine disp() has been executed.					coords(3): 0.0000

 ***NOTE: Subroutine disp() has been executed. node: 91

 ***NOTE: Subroutine disp() has been executed. u(1): 0.0000

 ***NOTE: Subroutine disp() has been executed.					coords(1): 10.000

 ***NOTE: Subroutine disp() has been executed.					coords(2): 0.0000

 ***NOTE: Subroutine disp() has been executed.					coords(3): 0.0000

 ***NOTE: Subroutine disp() has been executed. node: 90

 ***NOTE: Subroutine disp() has been executed. u(1): 0.0000

 ***NOTE: Subroutine disp() has been executed.					coords(1): 9.0000

 ***NOTE: Subroutine disp() has been executed.					coords(2): 0.0000

 ***NOTE: Subroutine disp() has been executed.					coords(3): 0.0000

 ***NOTE: Subroutine disp() has been executed. node: 89

 ***NOTE: Subroutine disp() has been executed. u(1): 0.0000

 ***NOTE: Subroutine disp() has been executed.					coords(1): 8.0000

 ***NOTE: Subroutine disp() has been executed.					coords(2): 0.0000

 ***NOTE: Subroutine disp() has been executed.					coords(3): 0.0000

 ***NOTE: Subroutine disp() has been executed. node: 88

 ***NOTE: Subroutine disp() has been executed. u(1): 0.0000

 ***NOTE: Subroutine disp() has been executed.					coords(1): 7.0000

 ***NOTE: Subroutine disp() has been executed.					coords(2): 0.0000

 ***NOTE: Subroutine disp() has been executed.					coords(3): 0.0000

 ***NOTE: Subroutine disp() has been executed. node: 87

 ***NOTE: Subroutine disp() has been executed. u(1): 0.0000

 ***NOTE: Subroutine disp() has been executed.					coords(1): 6.0000

 ***NOTE: Subroutine disp() has been executed.					coords(2): 0.0000

 ***NOTE: Subroutine disp() has been executed.					coords(3): 0.0000

 ***NOTE: Subroutine disp() has been executed. node: 86

 ***NOTE: Subroutine disp() has been executed. u(1): 0.0000

 ***NOTE: Subroutine disp() has been executed.					coords(1): 5.0000

 ***NOTE: Subroutine disp() has been executed.					coords(2): 0.0000

 ***NOTE: Subroutine disp() has been executed.					coords(3): 0.0000

 ***NOTE: Subroutine disp() has been executed. node: 85

 ***NOTE: Subroutine disp() has been executed. u(1): 0.0000

 ***NOTE: Subroutine disp() has been executed.					coords(1): 4.0000

 ***NOTE: Subroutine disp() has been executed.					coords(2): 0.0000

 ***NOTE: Subroutine disp() has been executed.					coords(3): 0.0000

 ***NOTE: Subroutine disp() has been executed. node: 84

 ***NOTE: Subroutine disp() has been executed. u(1): 0.0000

 ***NOTE: Subroutine disp() has been executed.					coords(1): 3.0000

 ***NOTE: Subroutine disp() has been executed.					coords(2): 0.0000

 ***NOTE: Subroutine disp() has been executed.					coords(3): 0.0000

 ***NOTE: Subroutine disp() has been executed. node: 83

 ***NOTE: Subroutine disp() has been executed. u(1): 0.0000

 ***NOTE: Subroutine disp() has been executed.					coords(1): 2.0000

 ***NOTE: Subroutine disp() has been executed.					coords(2): 0.0000

 ***NOTE: Subroutine disp() has been executed.					coords(3): 0.0000

 ***NOTE: Subroutine disp() has been executed. node: 82

 ***NOTE: Subroutine disp() has been executed. u(1): 0.0000

 ***NOTE: Subroutine disp() has been executed.					coords(1): 1.0000

 ***NOTE: Subroutine disp() has been executed.					coords(2): 0.0000

 ***NOTE: Subroutine disp() has been executed.					coords(3): 0.0000

 ***NOTE: Subroutine disp() has been executed. node: 4

 ***NOTE: Subroutine disp() has been executed. u(1): 0.0000

 ***NOTE: Subroutine disp() has been executed.					coords(1): 0.0000

 ***NOTE: Subroutine disp() has been executed.					coords(2): 0.0000

 ***NOTE: Subroutine disp() has been executed.					coords(3): 0.0000

 ***NOTE: Subroutine disp() has been executed. node: 250

 ***NOTE: Subroutine disp() has been executed. u(1): 0.0000

 ***NOTE: Subroutine disp() has been executed.					coords(1): 26.000

 ***NOTE: Subroutine disp() has been executed.					coords(2): 0.0000

 ***NOTE: Subroutine disp() has been executed.					coords(3): 0.0000

 ***NOTE: Subroutine disp() has been executed. node: 251

 ***NOTE: Subroutine disp() has been executed. u(1): 0.0000

 ***NOTE: Subroutine disp() has been executed.					coords(1): 27.000

 ***NOTE: Subroutine disp() has been executed.					coords(2): 0.0000

 ***NOTE: Subroutine disp() has been executed.					coords(3): 0.0000

 ***NOTE: Subroutine disp() has been executed. node: 252

 ***NOTE: Subroutine disp() has been executed. u(1): 0.0000

 ***NOTE: Subroutine disp() has been executed.					coords(1): 28.000

 ***NOTE: Subroutine disp() has been executed.					coords(2): 0.0000

 ***NOTE: Subroutine disp() has been executed.					coords(3): 0.0000

 ***NOTE: Subroutine disp() has been executed. node: 253

 ***NOTE: Subroutine disp() has been executed. u(1): 0.0000

 ***NOTE: Subroutine disp() has been executed.					coords(1): 29.000

 ***NOTE: Subroutine disp() has been executed.					coords(2): 0.0000

 ***NOTE: Subroutine disp() has been executed.					coords(3): 0.0000

 ***NOTE: Subroutine disp() has been executed. node: 254

 ***NOTE: Subroutine disp() has been executed. u(1): 0.0000

 ***NOTE: Subroutine disp() has been executed.					coords(1): 30.000

 ***NOTE: Subroutine disp() has been executed.					coords(2): 0.0000

 ***NOTE: Subroutine disp() has been executed.					coords(3): 0.0000

 ***NOTE: Subroutine disp() has been executed. node: 255

 ***NOTE: Subroutine disp() has been executed. u(1): 0.0000

 ***NOTE: Subroutine disp() has been executed.					coords(1): 31.000

 ***NOTE: Subroutine disp() has been executed.					coords(2): 0.0000

 ***NOTE: Subroutine disp() has been executed.					coords(3): 0.0000

 ***NOTE: Subroutine disp() has been executed. node: 256

 ***NOTE: Subroutine disp() has been executed. u(1): 0.0000

 ***NOTE: Subroutine disp() has been executed.					coords(1): 32.000

 ***NOTE: Subroutine disp() has been executed.					coords(2): 0.0000

 ***NOTE: Subroutine disp() has been executed.					coords(3): 0.0000

 ***NOTE: Subroutine disp() has been executed. node: 257

 ***NOTE: Subroutine disp() has been executed. u(1): 0.0000

 ***NOTE: Subroutine disp() has been executed.					coords(1): 33.000

 ***NOTE: Subroutine disp() has been executed.					coords(2): 0.0000

 ***NOTE: Subroutine disp() has been executed.					coords(3): 0.0000

 ***NOTE: Subroutine disp() has been executed. node: 258

 ***NOTE: Subroutine disp() has been executed. u(1): 0.0000

 ***NOTE: Subroutine disp() has been executed.					coords(1): 34.000

 ***NOTE: Subroutine disp() has been executed.					coords(2): 0.0000

 ***NOTE: Subroutine disp() has been executed.					coords(3): 0.0000

 ***NOTE: Subroutine disp() has been executed. node: 259

 ***NOTE: Subroutine disp() has been executed. u(1): 0.0000

 ***NOTE: Subroutine disp() has been executed.					coords(1): 35.000

 ***NOTE: Subroutine disp() has been executed.					coords(2): 0.0000

 ***NOTE: Subroutine disp() has been executed.					coords(3): 0.0000

 ***NOTE: Subroutine disp() has been executed. node: 260

 ***NOTE: Subroutine disp() has been executed. u(1): 0.0000

 ***NOTE: Subroutine disp() has been executed.					coords(1): 36.000

 ***NOTE: Subroutine disp() has been executed.					coords(2): 0.0000

 ***NOTE: Subroutine disp() has been executed.					coords(3): 0.0000

 ***NOTE: Subroutine disp() has been executed. node: 261

 ***NOTE: Subroutine disp() has been executed. u(1): 0.0000

 ***NOTE: Subroutine disp() has been executed.					coords(1): 37.000

 ***NOTE: Subroutine disp() has been executed.					coords(2): 0.0000

 ***NOTE: Subroutine disp() has been executed.					coords(3): 0.0000

 ***NOTE: Subroutine disp() has been executed. node: 262

 ***NOTE: Subroutine disp() has been executed. u(1): 0.0000

 ***NOTE: Subroutine disp() has been executed.					coords(1): 38.000

 ***NOTE: Subroutine disp() has been executed.					coords(2): 0.0000

 ***NOTE: Subroutine disp() has been executed.					coords(3): 0.0000

 ***NOTE: Subroutine disp() has been executed. node: 263

 ***NOTE: Subroutine disp() has been executed. u(1): 0.0000

 ***NOTE: Subroutine disp() has been executed.					coords(1): 39.000

 ***NOTE: Subroutine disp() has been executed.					coords(2): 0.0000

 ***NOTE: Subroutine disp() has been executed.					coords(3): 0.0000

 ***NOTE: Subroutine disp() has been executed. node: 264

 ***NOTE: Subroutine disp() has been executed. u(1): 0.0000

 ***NOTE: Subroutine disp() has been executed.					coords(1): 40.000

 ***NOTE: Subroutine disp() has been executed.					coords(2): 0.0000

 ***NOTE: Subroutine disp() has been executed.					coords(3): 0.0000

 ***NOTE: Subroutine disp() has been executed. node: 265

 ***NOTE: Subroutine disp() has been executed. u(1): 0.0000

 ***NOTE: Subroutine disp() has been executed.					coords(1): 41.000

 ***NOTE: Subroutine disp() has been executed.					coords(2): 0.0000

 ***NOTE: Subroutine disp() has been executed.					coords(3): 0.0000

 ***NOTE: Subroutine disp() has been executed. node: 266

 ***NOTE: Subroutine disp() has been executed. u(1): 0.0000

 ***NOTE: Subroutine disp() has been executed.					coords(1): 42.000

 ***NOTE: Subroutine disp() has been executed.					coords(2): 0.0000

 ***NOTE: Subroutine disp() has been executed.					coords(3): 0.0000

 ***NOTE: Subroutine disp() has been executed. node: 267

 ***NOTE: Subroutine disp() has been executed. u(1): 0.0000

 ***NOTE: Subroutine disp() has been executed.					coords(1): 43.000

 ***NOTE: Subroutine disp() has been executed.					coords(2): 0.0000

 ***NOTE: Subroutine disp() has been executed.					coords(3): 0.0000

 ***NOTE: Subroutine disp() has been executed. node: 268

 ***NOTE: Subroutine disp() has been executed. u(1): 0.0000

 ***NOTE: Subroutine disp() has been executed.					coords(1): 44.000

 ***NOTE: Subroutine disp() has been executed.					coords(2): 0.0000

 ***NOTE: Subroutine disp() has been executed.					coords(3): 0.0000

 ***NOTE: Subroutine disp() has been executed. node: 269

 ***NOTE: Subroutine disp() has been executed. u(1): 0.0000

 ***NOTE: Subroutine disp() has been executed.					coords(1): 45.000

 ***NOTE: Subroutine disp() has been executed.					coords(2): 0.0000

 ***NOTE: Subroutine disp() has been executed.					coords(3): 0.0000

 ***NOTE: Subroutine disp() has been executed. node: 270

 ***NOTE: Subroutine disp() has been executed. u(1): 0.0000

 ***NOTE: Subroutine disp() has been executed.					coords(1): 46.000

 ***NOTE: Subroutine disp() has been executed.					coords(2): 0.0000

 ***NOTE: Subroutine disp() has been executed.					coords(3): 0.0000

 ***NOTE: Subroutine disp() has been executed. node: 271

 ***NOTE: Subroutine disp() has been executed. u(1): 0.0000

 ***NOTE: Subroutine disp() has been executed.					coords(1): 47.000

 ***NOTE: Subroutine disp() has been executed.					coords(2): 0.0000

 ***NOTE: Subroutine disp() has been executed.					coords(3): 0.0000

 ***NOTE: Subroutine disp() has been executed. node: 272

 ***NOTE: Subroutine disp() has been executed. u(1): 0.0000

 ***NOTE: Subroutine disp() has been executed.					coords(1): 48.000

 ***NOTE: Subroutine disp() has been executed.					coords(2): 0.0000

 ***NOTE: Subroutine disp() has been executed.					coords(3): 0.0000

 ***NOTE: Subroutine disp() has been executed. node: 273

 ***NOTE: Subroutine disp() has been executed. u(1): 0.0000

 ***NOTE: Subroutine disp() has been executed.					coords(1): 49.000

 ***NOTE: Subroutine disp() has been executed.					coords(2): 0.0000

 ***NOTE: Subroutine disp() has been executed.					coords(3): 0.0000

 ***NOTE: Subroutine disp() has been executed. node: 9

 ***NOTE: Subroutine disp() has been executed. u(1): 0.0000

 ***NOTE: Subroutine disp() has been executed.					coords(1): 50.000

 ***NOTE: Subroutine disp() has been executed.					coords(2): 0.0000

 ***NOTE: Subroutine disp() has been executed.					coords(3): 0.0000

               CONVERGENCE CHECKS FOR EQUILIBRIUM ITERATION     2


 AVERAGE FORCE                      8.660E+04   TIME AVG. FORCE       8.754E+04
 LARGEST RESIDUAL FORCE            -4.539E-05   AT NODE       7151   DOF  2
   INSTANCE: PART_1-1                                                                        
 LARGEST INCREMENT OF DISP.        -8.010E-03   AT NODE       6371   DOF  2
   INSTANCE: PART_1-1                                                                        
 LARGEST CORRECTION TO DISP.       -5.308E-08   AT NODE       2333   DOF  2
   INSTANCE: PART_1-1                                                                        
          THE FORCE     EQUILIBRIUM EQUATIONS HAVE CONVERGED

 AVERAGE VOL. FLUX                  5.104E-04   TIME AVG. VOL. FLUX   2.318E-04
 LARGEST RESIDUAL VOL. FLUX         6.180E-17   AT NODE       2502   DOF  8
   INSTANCE: PART_1-1                                                                        
 LARGEST INCREMENT OF P.PRESS.     -5.639E+04   AT NODE          1   DOF  8
   INSTANCE: PART_1-1                                                                        
 LARGEST CORRECTION TO P.PRESS.     0.785       AT NODE       2335   DOF  8
   INSTANCE: PART_1-1                                                                        
          THE VOL. FLUX EQUILIBRIUM EQUATIONS HAVE CONVERGED

 MAXIMUM NON-PRESCRIBED INCREMENT IN PORE PRESSURE IS  -4.673E+04

 ***NOTE: Subroutine uExternalDB() has been executed. analysisPos: 2

 ***NOTE: Subroutine uExternalDB() has been executed. Time: 43200., 43201.

 ITERATION SUMMARY FOR THE INCREMENT:   2 TOTAL ITERATIONS, OF WHICH
   0 ARE SEVERE DISCONTINUITY ITERATIONS AND  2 ARE EQUILIBRIUM ITERATIONS.

 TIME INCREMENT COMPLETED  4.967E+03,  FRACTION OF STEP COMPLETED   1.00    
 STEP TIME COMPLETED       4.320E+04,  TOTAL TIME COMPLETED        4.320E+04

 ***NOTE: Subroutine uExternalDB() has been executed. analysisPos: 6

 ***NOTE: Subroutine uExternalDB() has been executed. Time: 43200., 43201.


          THE ANALYSIS HAS BEEN COMPLETED

 ***NOTE: Exportfile (D:\Benutzer\Biebricher\Dokumente\80 
          Dissertation\Programmierung\Abaqus-Pace3D-Transition\abq_subroutines\s
          ample\Cube_PP_SubRTest_void-ratio.csv) closed.

 ***NOTE: Matrixfile (D:\Benutzer\Biebricher\Dokumente\80 
          Dissertation\Programmierung\Abaqus-Pace3D-Transition\abq_subroutines\s
          ample\Cube_PP_SubRTest_matrix.csv) closed.

 ***NOTE: Subroutine uExternalDB() has been executed. analysisPos: 3

 ***NOTE: Subroutine uExternalDB() has been executed. Time: 43200., 43201.



     ANALYSIS SUMMARY:
     TOTAL OF         15  INCREMENTS
                       2  CUTBACKS IN AUTOMATIC INCREMENTATION
                      33  ITERATIONS INCLUDING CONTACT ITERATIONS IF PRESENT
                      33  PASSES THROUGH THE EQUATION SOLVER OF WHICH 
                      33  INVOLVE MATRIX DECOMPOSITION, INCLUDING
                       0  DECOMPOSITION(S) OF THE MASS MATRIX
                       1  REORDERING OF EQUATIONS TO MINIMIZE WAVEFRONT
                       0  ADDITIONAL RESIDUAL EVALUATIONS FOR LINE SEARCHES
                       0  ADDITIONAL OPERATOR EVALUATIONS FOR LINE SEARCHES
                       4  WARNING MESSAGES DURING USER INPUT PROCESSING
                       1  WARNING MESSAGES DURING ANALYSIS
                       0  ANALYSIS WARNINGS ARE NUMERICAL PROBLEM MESSAGES
                       0  ANALYSIS WARNINGS ARE NEGATIVE EIGENVALUE MESSAGES
                       0  ERROR MESSAGES



     JOB TIME SUMMARY
       USER TIME (SEC)      =   14.400    
       SYSTEM TIME (SEC)    =   1.9000    
       TOTAL CPU TIME (SEC) =   16.300    
       WALLCLOCK TIME (SEC) =         16
