1

   Abaqus 3DEXPERIENCE R2019x                                  Date 11-Nov-2019   Time 11:02:48
   For use by RWTH AACHEN UNIVERSITY under license from Dassault Systemes or its subsidiary.



                         The Abaqus Software is a product of:

                           Dassault Systemes SIMULIA Corp.
                           1301 Atwood Avenue, Suite 101W
                              Johnston, RI 02919, USA
 


                   The Abaqus Software is available only under license
                   from Dassault Systemes or its subsidiary and may be
                   used or reproduced only in accordance with the terms
                   of such license.
 
                          On machine WIMI07 
                          you are authorized to run
                          Abaqus/Standard until 30-Apr-2020

                          Your site id is: 200000000006963 


 
                    For assistance or any other information you may
                    obtain contact information for your local office
                    from the world wide web at:

                      http://www.3ds.com/products/simulia/locations/

 
                * * * * * * * * * * * * * * * * * * * * * * * * * * * * * * 
                *                                                         * 
                *                   *****************                     * 
                *                   *  N O T I C E  *                     * 
                *                   *****************                     * 
                *                                                         * 
                *                                                         * 
                *               Abaqus 3DEXPERIENCE R2019x                * 
                *                                                         * 
                *          BUILD ID: 2018_09_24-20.41.51 157541           * 
                *                                                         * 
                *                                                         * 
                *  Please make sure you are using                         * 
                *  release 3DEXPERIENCE R2019x manuals                    * 
                *  plus the notes accompanying this release.              * 
                *                                                         * 
                *                                                         * 
                *                                                         * 
                *                                                         * 
                *                                                         * 
                *   This program may not be used for commercial purposes  * 
                *           without payment of a commercial fee.          * 
                *                                                         * 
                * * * * * * * * * * * * * * * * * * * * * * * * * * * * * * 


 



     PROCESSING PART, INSTANCE, AND ASSEMBLY INFORMATION
   *******************************************************


     END PROCESSING PART, INSTANCE, AND ASSEMBLY INFORMATION
   ***********************************************************

  *initialconditions, type=STRESS, geostatic
  *initialconditions, type=POREPRESSURE
  *initialconditions, type=SATURATION
  *initialconditions, type=RATIO



     OPTIONS BEING PROCESSED
   ***************************


  *Heading
  *Node
  *Element, type=CPE8P
  *Nset, nset=ASSEMBLY_PART_1-1__PICKEDSET19
  *Elset, elset=ASSEMBLY_PART_1-1__PICKEDSET19
  *Nset, nset=ASSEMBLY_SET-8
  *Nset, nset=ASSEMBLY__PICKEDSET33
  *Nset, nset=ASSEMBLY__PICKEDSET34
  *Nset, nset=ASSEMBLY__PICKEDSET35
  *Nset, nset=ASSEMBLY__PICKEDSET36
  *Nset, nset=ASSEMBLY__PICKEDSET37
  *Nset, nset=ASSEMBLY__PICKEDSET38
  *Nset, nset=ASSEMBLY__PICKEDSET47
  *Nset, nset=ASSEMBLY__PICKEDSET47_PP_
  *Nset, nset=ASSEMBLY__PICKEDSET48
  *Nset, nset=ASSEMBLY__PICKEDSET48_PP_
  *Nset, nset=ASSEMBLY__PICKEDSET49
  *Nset, nset=ASSEMBLY__PICKEDSET49_PP_
  *Elset, elset=ASSEMBLY__PICKEDSET33
  *Elset, elset=ASSEMBLY__PICKEDSET34
  *Elset, elset=ASSEMBLY__PICKEDSET35
  *Elset, elset=ASSEMBLY__PICKEDSET36
  *Elset, elset=ASSEMBLY__PICKEDSET37
  *Elset, elset=ASSEMBLY__PICKEDSET38
  *Elset, elset=ASSEMBLY__PICKEDSET48
  *Elset, elset=ASSEMBLY__PICKEDSET49
  *material, name=MATERIAL_1
  *density
  *elastic
  *permeability, specific=9810
  *initialconditions, type=STRESS, geostatic
  *initialconditions, type=POREPRESSURE
  *initialconditions, type=SATURATION
  *initialconditions, type=RATIO
  *solidsection, elset=ASSEMBLY_PART_1-1__PICKEDSET19, material=MATERIAL_1
  *solidsection, elset=ASSEMBLY_PART_1-1__PICKEDSET19, material=MATERIAL_1
  *surfaceinteraction, name=INTERACTIONPROP
  *surfacebehavior, pressure-overclosure=HARD
  *surfaceinteraction, name=INTERACTIONPROP
  *initialconditions, type=STRESS, geostatic
  *initialconditions, type=POREPRESSURE
  *initialconditions, type=SATURATION
  *initialconditions, type=RATIO
  *boundary
  *boundary
  *boundary
  *boundary
  *boundary, user
  *boundary
  *boundary
  *boundary
  *boundary
  *surfaceinteraction, name=INTERACTIONPROP
  *output, field
  *output, history, variable=PRESELECT
  *output, field
  *output, history, variable=PRESELECT
  *elementoutput, directions=YES
  *elementoutput, directions=YES
  *initialconditions, type=STRESS, geostatic
  *initialconditions, type=POREPRESSURE
  *initialconditions, type=SATURATION
  *initialconditions, type=RATIO
  *output, field
  *output, history, variable=PRESELECT
  *output, field
  *output, history, variable=PRESELECT
  *elementoutput, directions=YES
  *elementoutput, directions=YES
  *initialconditions, type=STRESS, geostatic
  *initialconditions, type=POREPRESSURE
  *initialconditions, type=SATURATION
  *initialconditions, type=RATIO
  *initialconditions, type=STRESS, geostatic
  *initialconditions, type=POREPRESSURE
  *initialconditions, type=SATURATION
  *initialconditions, type=RATIO
  *output, field
  *output, history, variable=PRESELECT
  *output, field
  *output, history, variable=PRESELECT
  *elementoutput, directions=YES
  *elementoutput, directions=YES
  *geostatic
  *geostatic
  *amplitude, name=AMP-1
  *Step, name=Step_Geostatic, nlgeom=NO
  *output, field
  *output, history, variable=PRESELECT
  *Step, name=Step_PPChange, nlgeom=NO, amplitude=RAMP, inc=10000
  *output, field
  *output, history, variable=PRESELECT
  *Step, name=Step_Geostatic, nlgeom=NO
  *Step, name=Step_PPChange, nlgeom=NO, amplitude=RAMP, inc=10000
  *Step, name=Step_Geostatic, nlgeom=NO
  *geostatic
  *boundary
  *boundary
  *dload

 ***NOTE: ALL ELEMENTS THAT HAVE MASS ARE COLLECTED IN ELEMENT SET 
          _Whole_Model_Gravity_Elset FOR APPLICATION OF GRAVITY LOAD.
  *output, field
  *nodeoutput
  *elementoutput, directions=YES
  *contactoutput
  *output, history, variable=PRESELECT
  *elfile, frequency=10000
  *nodefile
  *endstep

 ***WARNING: STRAIN OUTPUT REQUEST LE IS NOT VALID FOR SOME ELEMENTS IN THIS 
             ANALYSIS. THIS REQUEST IS SWITCHED TO THE STRAIN MEASURE, E.
  *Step, name=Step_PPChange, nlgeom=NO, amplitude=RAMP, inc=10000
  *soils, consolidation, end=PERIOD, utol=50000, creep=NONE
  *boundary, user
  *output, field
  *nodeoutput
  *elementoutput, directions=YES
  *contactoutput
  *output, history, variable=PRESELECT
  *endstep

 ***WARNING: STRAIN OUTPUT REQUEST LE IS NOT VALID FOR SOME ELEMENTS IN THIS 
             ANALYSIS. THIS REQUEST IS SWITCHED TO THE STRAIN MEASURE, E.
  *boundary
  *boundary
  *Step, name=Step_Geostatic, nlgeom=NO
  *geostatic
  *boundary
  *boundary
  *endstep

 ***WARNING: OUTPUT REQUEST CF HAS BEEN REMOVED AS THERE ARE NO APPLICABLE 
             LOADS IN THIS STEP
  *Step, name=Step_PPChange, nlgeom=NO, amplitude=RAMP, inc=10000
  *soils, consolidation, end=PERIOD, utol=50000, creep=NONE
  *boundary, user
  *endstep

 ***WARNING: OUTPUT REQUEST CF HAS BEEN REMOVED AS THERE ARE NO APPLICABLE 
             LOADS IN THIS STEP

 ***NOTE: Boundary conditions are specified on inactive dof of 101 nodes. The 
          nodes have been identified in node set WarnNodeBCInactiveDof.


                              E L E M E N T,   N O D E,   A N D   S U R F A C E   M A P S


**NOTE: This section may not include complete information about
        members of sets and surfaces. Use *PREPRINT, MODEL=YES 
        in order to get the set and surface members printed    
        under the following sections:                          
            - E L E M E N T   S E T S                          
            - N O D E   S E T S                                
            - S U R F A C E   D E F I N I T I O N S .          


Assembly name: ASSEMBLY
Number of instances: 1

ASSEMBLY LEVEL
  node sets:
    SET-8:
      instance name: PART_1-1
      number of nodes: 1
      nodes: 
        2













  element sets:








  Surfaces:

INSTANCE LEVEL
  node sets:
    Instance name: PART_1-1

  element sets:
    Instance name: PART_1-1

  Surfaces:

GLOBAL TO LOCAL NODE AND ELEMENT MAPS
  Global     Local      
  node       node       
  number     number     
                        Instance name                                   
   1          1         PART_1-1                                        
   2          2         PART_1-1                                        
   3          3         PART_1-1                                        
   4          4         PART_1-1                                        
   5          5         PART_1-1                                        
   6          6         PART_1-1                                        
   7          7         PART_1-1                                        
   8          8         PART_1-1                                        
   9          9         PART_1-1                                        
   10         10        PART_1-1                                        
   11         11        PART_1-1                                        
   12         12        PART_1-1                                        
   13         13        PART_1-1                                        
   14         14        PART_1-1                                        
   15         15        PART_1-1                                        
   16         16        PART_1-1                                        
   17         17        PART_1-1                                        
   18         18        PART_1-1                                        
   19         19        PART_1-1                                        
   20         20        PART_1-1                                        
   21         21        PART_1-1                                        
   22         22        PART_1-1                                        
   23         23        PART_1-1                                        
   24         24        PART_1-1                                        
   25         25        PART_1-1                                        
   26         26        PART_1-1                                        
   27         27        PART_1-1                                        
   28         28        PART_1-1                                        
   29         29        PART_1-1                                        
   30         30        PART_1-1                                        
   31         31        PART_1-1                                        
   32         32        PART_1-1                                        
   33         33        PART_1-1                                        
   34         34        PART_1-1                                        
   35         35        PART_1-1                                        
   36         36        PART_1-1                                        
   37         37        PART_1-1                                        
   38         38        PART_1-1                                        
   39         39        PART_1-1                                        
   40         40        PART_1-1                                        
   41         41        PART_1-1                                        
   42         42        PART_1-1                                        
   43         43        PART_1-1                                        
   44         44        PART_1-1                                        
   45         45        PART_1-1                                        
   46         46        PART_1-1                                        
   47         47        PART_1-1                                        
   48         48        PART_1-1                                        
   49         49        PART_1-1                                        
   50         50        PART_1-1                                        
   51         51        PART_1-1                                        
   52         52        PART_1-1                                        
   53         53        PART_1-1                                        
   54         54        PART_1-1                                        
   55         55        PART_1-1                                        
   56         56        PART_1-1                                        
   57         57        PART_1-1                                        
   58         58        PART_1-1                                        
   59         59        PART_1-1                                        
   60         60        PART_1-1                                        
   61         61        PART_1-1                                        
   62         62        PART_1-1                                        
   63         63        PART_1-1                                        
   64         64        PART_1-1                                        
   65         65        PART_1-1                                        
   66         66        PART_1-1                                        
   67         67        PART_1-1                                        
   68         68        PART_1-1                                        
   69         69        PART_1-1                                        
   70         70        PART_1-1                                        
   71         71        PART_1-1                                        
   72         72        PART_1-1                                        
   73         73        PART_1-1                                        
   74         74        PART_1-1                                        
   75         75        PART_1-1                                        
   76         76        PART_1-1                                        
   77         77        PART_1-1                                        
   78         78        PART_1-1                                        
   79         79        PART_1-1                                        
   80         80        PART_1-1                                        
   81         81        PART_1-1                                        
   82         82        PART_1-1                                        
   83         83        PART_1-1                                        
   84         84        PART_1-1                                        
   85         85        PART_1-1                                        
   86         86        PART_1-1                                        
   87         87        PART_1-1                                        
   88         88        PART_1-1                                        
   89         89        PART_1-1                                        
   90         90        PART_1-1                                        
   91         91        PART_1-1                                        
   92         92        PART_1-1                                        
   93         93        PART_1-1                                        
   94         94        PART_1-1                                        
   95         95        PART_1-1                                        
   96         96        PART_1-1                                        
   97         97        PART_1-1                                        
   98         98        PART_1-1                                        
   99         99        PART_1-1                                        
   100        100       PART_1-1                                        
   101        101       PART_1-1                                        
   102        102       PART_1-1                                        
   103        103       PART_1-1                                        
   104        104       PART_1-1                                        
   105        105       PART_1-1                                        
   106        106       PART_1-1                                        
   107        107       PART_1-1                                        
   108        108       PART_1-1                                        
   109        109       PART_1-1                                        
   110        110       PART_1-1                                        
   111        111       PART_1-1                                        
   112        112       PART_1-1                                        
   113        113       PART_1-1                                        
   114        114       PART_1-1                                        
   115        115       PART_1-1                                        
   116        116       PART_1-1                                        
   117        117       PART_1-1                                        
   118        118       PART_1-1                                        
   119        119       PART_1-1                                        
   120        120       PART_1-1                                        
   121        121       PART_1-1                                        
   122        122       PART_1-1                                        
   123        123       PART_1-1                                        
   124        124       PART_1-1                                        
   125        125       PART_1-1                                        
   126        126       PART_1-1                                        
   127        127       PART_1-1                                        
   128        128       PART_1-1                                        
   129        129       PART_1-1                                        
   130        130       PART_1-1                                        
   131        131       PART_1-1                                        
   132        132       PART_1-1                                        
   133        133       PART_1-1                                        
   134        134       PART_1-1                                        
   135        135       PART_1-1                                        
   136        136       PART_1-1                                        
   137        137       PART_1-1                                        
   138        138       PART_1-1                                        
   139        139       PART_1-1                                        
   140        140       PART_1-1                                        
   141        141       PART_1-1                                        
   142        142       PART_1-1                                        
   143        143       PART_1-1                                        
   144        144       PART_1-1                                        
   145        145       PART_1-1                                        
   146        146       PART_1-1                                        
   147        147       PART_1-1                                        
   148        148       PART_1-1                                        
   149        149       PART_1-1                                        
   150        150       PART_1-1                                        
   151        151       PART_1-1                                        
   152        152       PART_1-1                                        
   153        153       PART_1-1                                        
   154        154       PART_1-1                                        
   155        155       PART_1-1                                        
   156        156       PART_1-1                                        
   157        157       PART_1-1                                        
   158        158       PART_1-1                                        
   159        159       PART_1-1                                        
   160        160       PART_1-1                                        
   161        161       PART_1-1                                        
   162        162       PART_1-1                                        
   163        163       PART_1-1                                        
   164        164       PART_1-1                                        
   165        165       PART_1-1                                        
   166        166       PART_1-1                                        
   167        167       PART_1-1                                        
   168        168       PART_1-1                                        
   169        169       PART_1-1                                        
   170        170       PART_1-1                                        
   171        171       PART_1-1                                        
   172        172       PART_1-1                                        
   173        173       PART_1-1                                        
   174        174       PART_1-1                                        
   175        175       PART_1-1                                        
   176        176       PART_1-1                                        
   177        177       PART_1-1                                        
   178        178       PART_1-1                                        
   179        179       PART_1-1                                        
   180        180       PART_1-1                                        
   181        181       PART_1-1                                        
   182        182       PART_1-1                                        
   183        183       PART_1-1                                        
   184        184       PART_1-1                                        
   185        185       PART_1-1                                        
   186        186       PART_1-1                                        
   187        187       PART_1-1                                        
   188        188       PART_1-1                                        
   189        189       PART_1-1                                        
   190        190       PART_1-1                                        
   191        191       PART_1-1                                        
   192        192       PART_1-1                                        
   193        193       PART_1-1                                        
   194        194       PART_1-1                                        
   195        195       PART_1-1                                        
   196        196       PART_1-1                                        
   197        197       PART_1-1                                        
   198        198       PART_1-1                                        
   199        199       PART_1-1                                        
   200        200       PART_1-1                                        
   201        201       PART_1-1                                        
   202        202       PART_1-1                                        
   203        203       PART_1-1                                        
   204        204       PART_1-1                                        
   205        205       PART_1-1                                        
   206        206       PART_1-1                                        
   207        207       PART_1-1                                        
   208        208       PART_1-1                                        
   209        209       PART_1-1                                        
   210        210       PART_1-1                                        
   211        211       PART_1-1                                        
   212        212       PART_1-1                                        
   213        213       PART_1-1                                        
   214        214       PART_1-1                                        
   215        215       PART_1-1                                        
   216        216       PART_1-1                                        
   217        217       PART_1-1                                        
   218        218       PART_1-1                                        
   219        219       PART_1-1                                        
   220        220       PART_1-1                                        
   221        221       PART_1-1                                        
   222        222       PART_1-1                                        
   223        223       PART_1-1                                        
   224        224       PART_1-1                                        
   225        225       PART_1-1                                        
   226        226       PART_1-1                                        
   227        227       PART_1-1                                        
   228        228       PART_1-1                                        
   229        229       PART_1-1                                        
   230        230       PART_1-1                                        
   231        231       PART_1-1                                        
   232        232       PART_1-1                                        
   233        233       PART_1-1                                        
   234        234       PART_1-1                                        
   235        235       PART_1-1                                        
   236        236       PART_1-1                                        
   237        237       PART_1-1                                        
   238        238       PART_1-1                                        
   239        239       PART_1-1                                        
   240        240       PART_1-1                                        
   241        241       PART_1-1                                        
   242        242       PART_1-1                                        
   243        243       PART_1-1                                        
   244        244       PART_1-1                                        
   245        245       PART_1-1                                        
   246        246       PART_1-1                                        
   247        247       PART_1-1                                        
   248        248       PART_1-1                                        
   249        249       PART_1-1                                        
   250        250       PART_1-1                                        
   251        251       PART_1-1                                        
   252        252       PART_1-1                                        
   253        253       PART_1-1                                        
   254        254       PART_1-1                                        
   255        255       PART_1-1                                        
   256        256       PART_1-1                                        
   257        257       PART_1-1                                        
   258        258       PART_1-1                                        
   259        259       PART_1-1                                        
   260        260       PART_1-1                                        
   261        261       PART_1-1                                        
   262        262       PART_1-1                                        
   263        263       PART_1-1                                        
   264        264       PART_1-1                                        
   265        265       PART_1-1                                        
   266        266       PART_1-1                                        
   267        267       PART_1-1                                        
   268        268       PART_1-1                                        
   269        269       PART_1-1                                        
   270        270       PART_1-1                                        
   271        271       PART_1-1                                        
   272        272       PART_1-1                                        
   273        273       PART_1-1                                        
   274        274       PART_1-1                                        
   275        275       PART_1-1                                        
   276        276       PART_1-1                                        
   277        277       PART_1-1                                        
   278        278       PART_1-1                                        
   279        279       PART_1-1                                        
   280        280       PART_1-1                                        
   281        281       PART_1-1                                        
   282        282       PART_1-1                                        
   283        283       PART_1-1                                        
   284        284       PART_1-1                                        
   285        285       PART_1-1                                        
   286        286       PART_1-1                                        
   287        287       PART_1-1                                        
   288        288       PART_1-1                                        
   289        289       PART_1-1                                        
   290        290       PART_1-1                                        
   291        291       PART_1-1                                        
   292        292       PART_1-1                                        
   293        293       PART_1-1                                        
   294        294       PART_1-1                                        
   295        295       PART_1-1                                        
   296        296       PART_1-1                                        
   297        297       PART_1-1                                        
   298        298       PART_1-1                                        
   299        299       PART_1-1                                        
   300        300       PART_1-1                                        
   301        301       PART_1-1                                        
   302        302       PART_1-1                                        
   303        303       PART_1-1                                        
   304        304       PART_1-1                                        
   305        305       PART_1-1                                        
   306        306       PART_1-1                                        
   307        307       PART_1-1                                        
   308        308       PART_1-1                                        
   309        309       PART_1-1                                        
   310        310       PART_1-1                                        
   311        311       PART_1-1                                        
   312        312       PART_1-1                                        
   313        313       PART_1-1                                        
   314        314       PART_1-1                                        
   315        315       PART_1-1                                        
   316        316       PART_1-1                                        
   317        317       PART_1-1                                        
   318        318       PART_1-1                                        
   319        319       PART_1-1                                        
   320        320       PART_1-1                                        
   321        321       PART_1-1                                        
   322        322       PART_1-1                                        
   323        323       PART_1-1                                        
   324        324       PART_1-1                                        
   325        325       PART_1-1                                        
   326        326       PART_1-1                                        
   327        327       PART_1-1                                        
   328        328       PART_1-1                                        
   329        329       PART_1-1                                        
   330        330       PART_1-1                                        
   331        331       PART_1-1                                        
   332        332       PART_1-1                                        
   333        333       PART_1-1                                        
   334        334       PART_1-1                                        
   335        335       PART_1-1                                        
   336        336       PART_1-1                                        
   337        337       PART_1-1                                        
   338        338       PART_1-1                                        
   339        339       PART_1-1                                        
   340        340       PART_1-1                                        
   341        341       PART_1-1                                        
   342        342       PART_1-1                                        
   343        343       PART_1-1                                        
   344        344       PART_1-1                                        
   345        345       PART_1-1                                        
   346        346       PART_1-1                                        
   347        347       PART_1-1                                        
   348        348       PART_1-1                                        
   349        349       PART_1-1                                        
   350        350       PART_1-1                                        
   351        351       PART_1-1                                        
   352        352       PART_1-1                                        
   353        353       PART_1-1                                        
   354        354       PART_1-1                                        
   355        355       PART_1-1                                        
   356        356       PART_1-1                                        
   357        357       PART_1-1                                        
   358        358       PART_1-1                                        
   359        359       PART_1-1                                        
   360        360       PART_1-1                                        
   361        361       PART_1-1                                        
   362        362       PART_1-1                                        
   363        363       PART_1-1                                        
   364        364       PART_1-1                                        
   365        365       PART_1-1                                        
   366        366       PART_1-1                                        
   367        367       PART_1-1                                        
   368        368       PART_1-1                                        
   369        369       PART_1-1                                        
   370        370       PART_1-1                                        
   371        371       PART_1-1                                        
   372        372       PART_1-1                                        
   373        373       PART_1-1                                        
   374        374       PART_1-1                                        
   375        375       PART_1-1                                        
   376        376       PART_1-1                                        
   377        377       PART_1-1                                        
   378        378       PART_1-1                                        
   379        379       PART_1-1                                        
   380        380       PART_1-1                                        
   381        381       PART_1-1                                        
   382        382       PART_1-1                                        
   383        383       PART_1-1                                        
   384        384       PART_1-1                                        
   385        385       PART_1-1                                        
   386        386       PART_1-1                                        
   387        387       PART_1-1                                        
   388        388       PART_1-1                                        
   389        389       PART_1-1                                        
   390        390       PART_1-1                                        
   391        391       PART_1-1                                        
   392        392       PART_1-1                                        
   393        393       PART_1-1                                        
   394        394       PART_1-1                                        
   395        395       PART_1-1                                        
   396        396       PART_1-1                                        
   397        397       PART_1-1                                        
   398        398       PART_1-1                                        
   399        399       PART_1-1                                        
   400        400       PART_1-1                                        
   401        401       PART_1-1                                        
   402        402       PART_1-1                                        
   403        403       PART_1-1                                        
   404        404       PART_1-1                                        
   405        405       PART_1-1                                        
   406        406       PART_1-1                                        
   407        407       PART_1-1                                        
   408        408       PART_1-1                                        
   409        409       PART_1-1                                        
   410        410       PART_1-1                                        
   411        411       PART_1-1                                        
   412        412       PART_1-1                                        
   413        413       PART_1-1                                        
   414        414       PART_1-1                                        
   415        415       PART_1-1                                        
   416        416       PART_1-1                                        
   417        417       PART_1-1                                        
   418        418       PART_1-1                                        
   419        419       PART_1-1                                        
   420        420       PART_1-1                                        
   421        421       PART_1-1                                        
   422        422       PART_1-1                                        
   423        423       PART_1-1                                        
   424        424       PART_1-1                                        
   425        425       PART_1-1                                        
   426        426       PART_1-1                                        
   427        427       PART_1-1                                        
   428        428       PART_1-1                                        
   429        429       PART_1-1                                        
   430        430       PART_1-1                                        
   431        431       PART_1-1                                        
   432        432       PART_1-1                                        
   433        433       PART_1-1                                        
   434        434       PART_1-1                                        
   435        435       PART_1-1                                        
   436        436       PART_1-1                                        
   437        437       PART_1-1                                        
   438        438       PART_1-1                                        
   439        439       PART_1-1                                        
   440        440       PART_1-1                                        
   441        441       PART_1-1                                        
   442        442       PART_1-1                                        
   443        443       PART_1-1                                        
   444        444       PART_1-1                                        
   445        445       PART_1-1                                        
   446        446       PART_1-1                                        
   447        447       PART_1-1                                        
   448        448       PART_1-1                                        
   449        449       PART_1-1                                        
   450        450       PART_1-1                                        
   451        451       PART_1-1                                        
   452        452       PART_1-1                                        
   453        453       PART_1-1                                        
   454        454       PART_1-1                                        
   455        455       PART_1-1                                        
   456        456       PART_1-1                                        
   457        457       PART_1-1                                        
   458        458       PART_1-1                                        
   459        459       PART_1-1                                        
   460        460       PART_1-1                                        
   461        461       PART_1-1                                        
   462        462       PART_1-1                                        
   463        463       PART_1-1                                        
   464        464       PART_1-1                                        
   465        465       PART_1-1                                        
   466        466       PART_1-1                                        
   467        467       PART_1-1                                        
   468        468       PART_1-1                                        
   469        469       PART_1-1                                        
   470        470       PART_1-1                                        
   471        471       PART_1-1                                        
   472        472       PART_1-1                                        
   473        473       PART_1-1                                        
   474        474       PART_1-1                                        
   475        475       PART_1-1                                        
   476        476       PART_1-1                                        
   477        477       PART_1-1                                        
   478        478       PART_1-1                                        
   479        479       PART_1-1                                        
   480        480       PART_1-1                                        
   481        481       PART_1-1                                        
   482        482       PART_1-1                                        
   483        483       PART_1-1                                        
   484        484       PART_1-1                                        
   485        485       PART_1-1                                        
   486        486       PART_1-1                                        
   487        487       PART_1-1                                        
   488        488       PART_1-1                                        
   489        489       PART_1-1                                        
   490        490       PART_1-1                                        
   491        491       PART_1-1                                        
   492        492       PART_1-1                                        
   493        493       PART_1-1                                        
   494        494       PART_1-1                                        
   495        495       PART_1-1                                        
   496        496       PART_1-1                                        
   497        497       PART_1-1                                        
   498        498       PART_1-1                                        
   499        499       PART_1-1                                        
   500        500       PART_1-1                                        
   501        501       PART_1-1                                        
   502        502       PART_1-1                                        
   503        503       PART_1-1                                        
   504        504       PART_1-1                                        
   505        505       PART_1-1                                        
   506        506       PART_1-1                                        
   507        507       PART_1-1                                        
   508        508       PART_1-1                                        
   509        509       PART_1-1                                        
   510        510       PART_1-1                                        
   511        511       PART_1-1                                        
   512        512       PART_1-1                                        
   513        513       PART_1-1                                        
   514        514       PART_1-1                                        
   515        515       PART_1-1                                        
   516        516       PART_1-1                                        
   517        517       PART_1-1                                        
   518        518       PART_1-1                                        
   519        519       PART_1-1                                        
   520        520       PART_1-1                                        
   521        521       PART_1-1                                        
   522        522       PART_1-1                                        
   523        523       PART_1-1                                        
   524        524       PART_1-1                                        
   525        525       PART_1-1                                        
   526        526       PART_1-1                                        
   527        527       PART_1-1                                        
   528        528       PART_1-1                                        
   529        529       PART_1-1                                        
   530        530       PART_1-1                                        
   531        531       PART_1-1                                        
   532        532       PART_1-1                                        
   533        533       PART_1-1                                        
   534        534       PART_1-1                                        
   535        535       PART_1-1                                        
   536        536       PART_1-1                                        
   537        537       PART_1-1                                        
   538        538       PART_1-1                                        
   539        539       PART_1-1                                        
   540        540       PART_1-1                                        
   541        541       PART_1-1                                        
   542        542       PART_1-1                                        
   543        543       PART_1-1                                        
   544        544       PART_1-1                                        
   545        545       PART_1-1                                        
   546        546       PART_1-1                                        
   547        547       PART_1-1                                        
   548        548       PART_1-1                                        
   549        549       PART_1-1                                        
   550        550       PART_1-1                                        
   551        551       PART_1-1                                        
   552        552       PART_1-1                                        
   553        553       PART_1-1                                        
   554        554       PART_1-1                                        
   555        555       PART_1-1                                        
   556        556       PART_1-1                                        
   557        557       PART_1-1                                        
   558        558       PART_1-1                                        
   559        559       PART_1-1                                        
   560        560       PART_1-1                                        
   561        561       PART_1-1                                        
   562        562       PART_1-1                                        
   563        563       PART_1-1                                        
   564        564       PART_1-1                                        
   565        565       PART_1-1                                        
   566        566       PART_1-1                                        
   567        567       PART_1-1                                        
   568        568       PART_1-1                                        
   569        569       PART_1-1                                        
   570        570       PART_1-1                                        
   571        571       PART_1-1                                        
   572        572       PART_1-1                                        
   573        573       PART_1-1                                        
   574        574       PART_1-1                                        
   575        575       PART_1-1                                        
   576        576       PART_1-1                                        
   577        577       PART_1-1                                        
   578        578       PART_1-1                                        
   579        579       PART_1-1                                        
   580        580       PART_1-1                                        
   581        581       PART_1-1                                        
   582        582       PART_1-1                                        
   583        583       PART_1-1                                        
   584        584       PART_1-1                                        
   585        585       PART_1-1                                        
   586        586       PART_1-1                                        
   587        587       PART_1-1                                        
   588        588       PART_1-1                                        
   589        589       PART_1-1                                        
   590        590       PART_1-1                                        
   591        591       PART_1-1                                        
   592        592       PART_1-1                                        
   593        593       PART_1-1                                        
   594        594       PART_1-1                                        
   595        595       PART_1-1                                        
   596        596       PART_1-1                                        
   597        597       PART_1-1                                        
   598        598       PART_1-1                                        
   599        599       PART_1-1                                        
   600        600       PART_1-1                                        
   601        601       PART_1-1                                        
   602        602       PART_1-1                                        
   603        603       PART_1-1                                        
   604        604       PART_1-1                                        
   605        605       PART_1-1                                        
   606        606       PART_1-1                                        
   607        607       PART_1-1                                        
   608        608       PART_1-1                                        
   609        609       PART_1-1                                        
   610        610       PART_1-1                                        
   611        611       PART_1-1                                        
   612        612       PART_1-1                                        
   613        613       PART_1-1                                        
   614        614       PART_1-1                                        
   615        615       PART_1-1                                        
   616        616       PART_1-1                                        
   617        617       PART_1-1                                        
   618        618       PART_1-1                                        
   619        619       PART_1-1                                        
   620        620       PART_1-1                                        
   621        621       PART_1-1                                        
   622        622       PART_1-1                                        
   623        623       PART_1-1                                        
   624        624       PART_1-1                                        
   625        625       PART_1-1                                        
   626        626       PART_1-1                                        
   627        627       PART_1-1                                        
   628        628       PART_1-1                                        
   629        629       PART_1-1                                        
   630        630       PART_1-1                                        
   631        631       PART_1-1                                        
   632        632       PART_1-1                                        
   633        633       PART_1-1                                        
   634        634       PART_1-1                                        
   635        635       PART_1-1                                        
   636        636       PART_1-1                                        
   637        637       PART_1-1                                        
   638        638       PART_1-1                                        
   639        639       PART_1-1                                        
   640        640       PART_1-1                                        
   641        641       PART_1-1                                        
   642        642       PART_1-1                                        
   643        643       PART_1-1                                        
   644        644       PART_1-1                                        
   645        645       PART_1-1                                        
   646        646       PART_1-1                                        
   647        647       PART_1-1                                        
   648        648       PART_1-1                                        
   649        649       PART_1-1                                        
   650        650       PART_1-1                                        
   651        651       PART_1-1                                        
   652        652       PART_1-1                                        
   653        653       PART_1-1                                        
   654        654       PART_1-1                                        
   655        655       PART_1-1                                        
   656        656       PART_1-1                                        
   657        657       PART_1-1                                        
   658        658       PART_1-1                                        
   659        659       PART_1-1                                        
   660        660       PART_1-1                                        
   661        661       PART_1-1                                        
   662        662       PART_1-1                                        
   663        663       PART_1-1                                        
   664        664       PART_1-1                                        
   665        665       PART_1-1                                        
   666        666       PART_1-1                                        
   667        667       PART_1-1                                        
   668        668       PART_1-1                                        
   669        669       PART_1-1                                        
   670        670       PART_1-1                                        
   671        671       PART_1-1                                        
   672        672       PART_1-1                                        
   673        673       PART_1-1                                        
   674        674       PART_1-1                                        
   675        675       PART_1-1                                        
   676        676       PART_1-1                                        
   677        677       PART_1-1                                        
   678        678       PART_1-1                                        
   679        679       PART_1-1                                        
   680        680       PART_1-1                                        
   681        681       PART_1-1                                        
   682        682       PART_1-1                                        
   683        683       PART_1-1                                        
   684        684       PART_1-1                                        
   685        685       PART_1-1                                        
   686        686       PART_1-1                                        
   687        687       PART_1-1                                        
   688        688       PART_1-1                                        
   689        689       PART_1-1                                        
   690        690       PART_1-1                                        
   691        691       PART_1-1                                        
   692        692       PART_1-1                                        
   693        693       PART_1-1                                        
   694        694       PART_1-1                                        
   695        695       PART_1-1                                        
   696        696       PART_1-1                                        
   697        697       PART_1-1                                        
   698        698       PART_1-1                                        
   699        699       PART_1-1                                        
   700        700       PART_1-1                                        
   701        701       PART_1-1                                        
   702        702       PART_1-1                                        
   703        703       PART_1-1                                        
   704        704       PART_1-1                                        
   705        705       PART_1-1                                        
   706        706       PART_1-1                                        
   707        707       PART_1-1                                        
   708        708       PART_1-1                                        
   709        709       PART_1-1                                        
   710        710       PART_1-1                                        
   711        711       PART_1-1                                        
   712        712       PART_1-1                                        
   713        713       PART_1-1                                        
   714        714       PART_1-1                                        
   715        715       PART_1-1                                        
   716        716       PART_1-1                                        
   717        717       PART_1-1                                        
   718        718       PART_1-1                                        
   719        719       PART_1-1                                        
   720        720       PART_1-1                                        
   721        721       PART_1-1                                        
   722        722       PART_1-1                                        
   723        723       PART_1-1                                        
   724        724       PART_1-1                                        
   725        725       PART_1-1                                        
   726        726       PART_1-1                                        
   727        727       PART_1-1                                        
   728        728       PART_1-1                                        
   729        729       PART_1-1                                        
   730        730       PART_1-1                                        
   731        731       PART_1-1                                        
   732        732       PART_1-1                                        
   733        733       PART_1-1                                        
   734        734       PART_1-1                                        
   735        735       PART_1-1                                        
   736        736       PART_1-1                                        
   737        737       PART_1-1                                        
   738        738       PART_1-1                                        
   739        739       PART_1-1                                        
   740        740       PART_1-1                                        
   741        741       PART_1-1                                        
   742        742       PART_1-1                                        
   743        743       PART_1-1                                        
   744        744       PART_1-1                                        
   745        745       PART_1-1                                        
   746        746       PART_1-1                                        
   747        747       PART_1-1                                        
   748        748       PART_1-1                                        
   749        749       PART_1-1                                        
   750        750       PART_1-1                                        
   751        751       PART_1-1                                        
   752        752       PART_1-1                                        
   753        753       PART_1-1                                        
   754        754       PART_1-1                                        
   755        755       PART_1-1                                        
   756        756       PART_1-1                                        
   757        757       PART_1-1                                        
   758        758       PART_1-1                                        
   759        759       PART_1-1                                        
   760        760       PART_1-1                                        
   761        761       PART_1-1                                        
   762        762       PART_1-1                                        
   763        763       PART_1-1                                        
   764        764       PART_1-1                                        
   765        765       PART_1-1                                        
   766        766       PART_1-1                                        
   767        767       PART_1-1                                        
   768        768       PART_1-1                                        
   769        769       PART_1-1                                        
   770        770       PART_1-1                                        
   771        771       PART_1-1                                        
   772        772       PART_1-1                                        
   773        773       PART_1-1                                        
   774        774       PART_1-1                                        
   775        775       PART_1-1                                        
   776        776       PART_1-1                                        
   777        777       PART_1-1                                        
   778        778       PART_1-1                                        
   779        779       PART_1-1                                        
   780        780       PART_1-1                                        
   781        781       PART_1-1                                        
   782        782       PART_1-1                                        
   783        783       PART_1-1                                        
   784        784       PART_1-1                                        
   785        785       PART_1-1                                        
   786        786       PART_1-1                                        
   787        787       PART_1-1                                        
   788        788       PART_1-1                                        
   789        789       PART_1-1                                        
   790        790       PART_1-1                                        
   791        791       PART_1-1                                        
   792        792       PART_1-1                                        
   793        793       PART_1-1                                        
   794        794       PART_1-1                                        
   795        795       PART_1-1                                        
   796        796       PART_1-1                                        
   797        797       PART_1-1                                        
   798        798       PART_1-1                                        
   799        799       PART_1-1                                        
   800        800       PART_1-1                                        
   801        801       PART_1-1                                        
   802        802       PART_1-1                                        
   803        803       PART_1-1                                        
   804        804       PART_1-1                                        
   805        805       PART_1-1                                        
   806        806       PART_1-1                                        
   807        807       PART_1-1                                        
   808        808       PART_1-1                                        
   809        809       PART_1-1                                        
   810        810       PART_1-1                                        
   811        811       PART_1-1                                        
   812        812       PART_1-1                                        
   813        813       PART_1-1                                        
   814        814       PART_1-1                                        
   815        815       PART_1-1                                        
   816        816       PART_1-1                                        
   817        817       PART_1-1                                        
   818        818       PART_1-1                                        
   819        819       PART_1-1                                        
   820        820       PART_1-1                                        
   821        821       PART_1-1                                        
   822        822       PART_1-1                                        
   823        823       PART_1-1                                        
   824        824       PART_1-1                                        
   825        825       PART_1-1                                        
   826        826       PART_1-1                                        
   827        827       PART_1-1                                        
   828        828       PART_1-1                                        
   829        829       PART_1-1                                        
   830        830       PART_1-1                                        
   831        831       PART_1-1                                        
   832        832       PART_1-1                                        
   833        833       PART_1-1                                        
   834        834       PART_1-1                                        
   835        835       PART_1-1                                        
   836        836       PART_1-1                                        
   837        837       PART_1-1                                        
   838        838       PART_1-1                                        
   839        839       PART_1-1                                        
   840        840       PART_1-1                                        
   841        841       PART_1-1                                        
   842        842       PART_1-1                                        
   843        843       PART_1-1                                        
   844        844       PART_1-1                                        
   845        845       PART_1-1                                        
   846        846       PART_1-1                                        
   847        847       PART_1-1                                        
   848        848       PART_1-1                                        
   849        849       PART_1-1                                        
   850        850       PART_1-1                                        
   851        851       PART_1-1                                        
   852        852       PART_1-1                                        
   853        853       PART_1-1                                        
   854        854       PART_1-1                                        
   855        855       PART_1-1                                        
   856        856       PART_1-1                                        
   857        857       PART_1-1                                        
   858        858       PART_1-1                                        
   859        859       PART_1-1                                        
   860        860       PART_1-1                                        
   861        861       PART_1-1                                        
   862        862       PART_1-1                                        
   863        863       PART_1-1                                        
   864        864       PART_1-1                                        
   865        865       PART_1-1                                        
   866        866       PART_1-1                                        
   867        867       PART_1-1                                        
   868        868       PART_1-1                                        
   869        869       PART_1-1                                        
   870        870       PART_1-1                                        
   871        871       PART_1-1                                        
   872        872       PART_1-1                                        
   873        873       PART_1-1                                        
   874        874       PART_1-1                                        
   875        875       PART_1-1                                        
   876        876       PART_1-1                                        
   877        877       PART_1-1                                        
   878        878       PART_1-1                                        
   879        879       PART_1-1                                        
   880        880       PART_1-1                                        
   881        881       PART_1-1                                        
   882        882       PART_1-1                                        
   883        883       PART_1-1                                        
   884        884       PART_1-1                                        
   885        885       PART_1-1                                        
   886        886       PART_1-1                                        
   887        887       PART_1-1                                        
   888        888       PART_1-1                                        
   889        889       PART_1-1                                        
   890        890       PART_1-1                                        
   891        891       PART_1-1                                        
   892        892       PART_1-1                                        
   893        893       PART_1-1                                        
   894        894       PART_1-1                                        
   895        895       PART_1-1                                        
   896        896       PART_1-1                                        
   897        897       PART_1-1                                        
   898        898       PART_1-1                                        
   899        899       PART_1-1                                        
   900        900       PART_1-1                                        
   901        901       PART_1-1                                        
   902        902       PART_1-1                                        
   903        903       PART_1-1                                        
   904        904       PART_1-1                                        
   905        905       PART_1-1                                        
   906        906       PART_1-1                                        
   907        907       PART_1-1                                        
   908        908       PART_1-1                                        
   909        909       PART_1-1                                        
   910        910       PART_1-1                                        
   911        911       PART_1-1                                        
   912        912       PART_1-1                                        
   913        913       PART_1-1                                        
   914        914       PART_1-1                                        
   915        915       PART_1-1                                        
   916        916       PART_1-1                                        
   917        917       PART_1-1                                        
   918        918       PART_1-1                                        
   919        919       PART_1-1                                        
   920        920       PART_1-1                                        
   921        921       PART_1-1                                        
   922        922       PART_1-1                                        
   923        923       PART_1-1                                        
   924        924       PART_1-1                                        
   925        925       PART_1-1                                        
   926        926       PART_1-1                                        
   927        927       PART_1-1                                        
   928        928       PART_1-1                                        
   929        929       PART_1-1                                        
   930        930       PART_1-1                                        
   931        931       PART_1-1                                        
   932        932       PART_1-1                                        
   933        933       PART_1-1                                        
   934        934       PART_1-1                                        
   935        935       PART_1-1                                        
   936        936       PART_1-1                                        
   937        937       PART_1-1                                        
   938        938       PART_1-1                                        
   939        939       PART_1-1                                        
   940        940       PART_1-1                                        
   941        941       PART_1-1                                        
   942        942       PART_1-1                                        
   943        943       PART_1-1                                        
   944        944       PART_1-1                                        
   945        945       PART_1-1                                        
   946        946       PART_1-1                                        
   947        947       PART_1-1                                        
   948        948       PART_1-1                                        
   949        949       PART_1-1                                        
   950        950       PART_1-1                                        
   951        951       PART_1-1                                        
   952        952       PART_1-1                                        
   953        953       PART_1-1                                        
   954        954       PART_1-1                                        
   955        955       PART_1-1                                        
   956        956       PART_1-1                                        
   957        957       PART_1-1                                        
   958        958       PART_1-1                                        
   959        959       PART_1-1                                        
   960        960       PART_1-1                                        
   961        961       PART_1-1                                        
   962        962       PART_1-1                                        
   963        963       PART_1-1                                        
   964        964       PART_1-1                                        
   965        965       PART_1-1                                        
   966        966       PART_1-1                                        
   967        967       PART_1-1                                        
   968        968       PART_1-1                                        
[...]
  PART_1-1                                         2363       2363      
  PART_1-1                                         2364       2364      
  PART_1-1                                         2365       2365      
  PART_1-1                                         2366       2366      
  PART_1-1                                         2367       2367      
  PART_1-1                                         2368       2368      
  PART_1-1                                         2369       2369      
  PART_1-1                                         2370       2370      
  PART_1-1                                         2371       2371      
  PART_1-1                                         2372       2372      
  PART_1-1                                         2373       2373      
  PART_1-1                                         2374       2374      
  PART_1-1                                         2375       2375      
  PART_1-1                                         2376       2376      
  PART_1-1                                         2377       2377      
  PART_1-1                                         2378       2378      
  PART_1-1                                         2379       2379      
  PART_1-1                                         2380       2380      
  PART_1-1                                         2381       2381      
  PART_1-1                                         2382       2382      
  PART_1-1                                         2383       2383      
  PART_1-1                                         2384       2384      
  PART_1-1                                         2385       2385      
  PART_1-1                                         2386       2386      
  PART_1-1                                         2387       2387      
  PART_1-1                                         2388       2388      
  PART_1-1                                         2389       2389      
  PART_1-1                                         2390       2390      
  PART_1-1                                         2391       2391      
  PART_1-1                                         2392       2392      
  PART_1-1                                         2393       2393      
  PART_1-1                                         2394       2394      
  PART_1-1                                         2395       2395      
  PART_1-1                                         2396       2396      
  PART_1-1                                         2397       2397      
  PART_1-1                                         2398       2398      
  PART_1-1                                         2399       2399      
  PART_1-1                                         2400       2400      
  PART_1-1                                         2401       2401      
  PART_1-1                                         2402       2402      
  PART_1-1                                         2403       2403      
  PART_1-1                                         2404       2404      
  PART_1-1                                         2405       2405      
  PART_1-1                                         2406       2406      
  PART_1-1                                         2407       2407      
  PART_1-1                                         2408       2408      
  PART_1-1                                         2409       2409      
  PART_1-1                                         2410       2410      
  PART_1-1                                         2411       2411      
  PART_1-1                                         2412       2412      
  PART_1-1                                         2413       2413      
  PART_1-1                                         2414       2414      
  PART_1-1                                         2415       2415      
  PART_1-1                                         2416       2416      
  PART_1-1                                         2417       2417      
  PART_1-1                                         2418       2418      
  PART_1-1                                         2419       2419      
  PART_1-1                                         2420       2420      
  PART_1-1                                         2421       2421      
  PART_1-1                                         2422       2422      
  PART_1-1                                         2423       2423      
  PART_1-1                                         2424       2424      
  PART_1-1                                         2425       2425      
  PART_1-1                                         2426       2426      
  PART_1-1                                         2427       2427      
  PART_1-1                                         2428       2428      
  PART_1-1                                         2429       2429      
  PART_1-1                                         2430       2430      
  PART_1-1                                         2431       2431      
  PART_1-1                                         2432       2432      
  PART_1-1                                         2433       2433      
  PART_1-1                                         2434       2434      
  PART_1-1                                         2435       2435      
  PART_1-1                                         2436       2436      
  PART_1-1                                         2437       2437      
  PART_1-1                                         2438       2438      
  PART_1-1                                         2439       2439      
  PART_1-1                                         2440       2440      
  PART_1-1                                         2441       2441      
  PART_1-1                                         2442       2442      
  PART_1-1                                         2443       2443      
  PART_1-1                                         2444       2444      
  PART_1-1                                         2445       2445      
  PART_1-1                                         2446       2446      
  PART_1-1                                         2447       2447      
  PART_1-1                                         2448       2448      
  PART_1-1                                         2449       2449      
  PART_1-1                                         2450       2450      
  PART_1-1                                         2451       2451      
  PART_1-1                                         2452       2452      
  PART_1-1                                         2453       2453      
  PART_1-1                                         2454       2454      
  PART_1-1                                         2455       2455      
  PART_1-1                                         2456       2456      
  PART_1-1                                         2457       2457      
  PART_1-1                                         2458       2458      
  PART_1-1                                         2459       2459      
  PART_1-1                                         2460       2460      
  PART_1-1                                         2461       2461      
  PART_1-1                                         2462       2462      
  PART_1-1                                         2463       2463      
  PART_1-1                                         2464       2464      
  PART_1-1                                         2465       2465      
  PART_1-1                                         2466       2466      
  PART_1-1                                         2467       2467      
  PART_1-1                                         2468       2468      
  PART_1-1                                         2469       2469      
  PART_1-1                                         2470       2470      
  PART_1-1                                         2471       2471      
  PART_1-1                                         2472       2472      
  PART_1-1                                         2473       2473      
  PART_1-1                                         2474       2474      
  PART_1-1                                         2475       2475      
  PART_1-1                                         2476       2476      
  PART_1-1                                         2477       2477      
  PART_1-1                                         2478       2478      
  PART_1-1                                         2479       2479      
  PART_1-1                                         2480       2480      
  PART_1-1                                         2481       2481      
  PART_1-1                                         2482       2482      
  PART_1-1                                         2483       2483      
  PART_1-1                                         2484       2484      
  PART_1-1                                         2485       2485      
  PART_1-1                                         2486       2486      
  PART_1-1                                         2487       2487      
  PART_1-1                                         2488       2488      
  PART_1-1                                         2489       2489      
  PART_1-1                                         2490       2490      
  PART_1-1                                         2491       2491      
  PART_1-1                                         2492       2492      
  PART_1-1                                         2493       2493      
  PART_1-1                                         2494       2494      
  PART_1-1                                         2495       2495      
  PART_1-1                                         2496       2496      
  PART_1-1                                         2497       2497      
  PART_1-1                                         2498       2498      
  PART_1-1                                         2499       2499      
  PART_1-1                                         2500       2500      




                            P R O B L E M   S I Z E


          NUMBER OF ELEMENTS IS                                  2500
          NUMBER OF NODES IS                                     7701
          NUMBER OF NODES DEFINED BY THE USER                    7701
          TOTAL NUMBER OF VARIABLES IN THE MODEL                18003
          (DEGREES OF FREEDOM PLUS MAX NO. OF ANY LAGRANGE MULTIPLIER
           VARIABLES. INCLUDE *PRINT,SOLVE=YES TO GET THE ACTUAL NUMBER.)



                              END OF USER INPUT PROCESSING



     JOB TIME SUMMARY
       USER TIME (SEC)      =  0.40000    
       SYSTEM TIME (SEC)    =  0.20000    
       TOTAL CPU TIME (SEC) =  0.60000    
       WALLCLOCK TIME (SEC) =          1
1

   Abaqus 3DEXPERIENCE R2019x                                  Date 11-Nov-2019   Time 11:02:52
   For use by RWTH AACHEN UNIVERSITY under license from Dassault Systemes or its subsidiary.

                                                                                               STEP    1  INCREMENT    1
                                                                                          TIME COMPLETED IN THIS STEP   0.00    


                        S T E P       1     G E O S T A T I C   S T R E S S   A N A L Y S I S


                                                                                          

          UNSYMMETRIC MATRIX STORAGE AND SOLUTION WILL BE USED



                    TOTAL MASS OF MODEL

                       5000000.    


                    LOCATION OF THE CENTER OF MASS OF THE MODEL

                       25.00000           25.00000    


                    MOMENT OF INERTIA ABOUT THE ORIGIN
                           I(ZZ)

                      8.3333333E+09


                    PRODUCT OF INERTIA ABOUT THE ORIGIN
                           I(XY)

                     -3.1250000E+09


                    MOMENT OF INERTIA ABOUT THE CENTER OF MASS
                           I(ZZ)

                      2.0833333E+09


                    PRODUCT OF INERTIA ABOUT THE CENTER OF MASS
                           I(XY)

                     -1.4305115E-06
  
                   M E M O R Y   E S T I M A T E
  
 PROCESS      FLOATING PT       MINIMUM MEMORY        MEMORY TO
              OPERATIONS           REQUIRED          MINIMIZE I/O
             PER ITERATION           (MB)               (MB)
  
     1          6.27E+08               24                 75
  
 NOTE:
      (1) SINCE ABAQUS DOES NOT PRE-ALLOCATE MEMORY AND ONLY ALLOCATES MEMORY AS NEEDED DURING THE ANALYSIS,
          THE MEMORY REQUIREMENT PRINTED HERE CAN ONLY BE VIEWED AS A GENERAL GUIDELINE BASED ON THE BEST
          KNOWLEDGE AVAILABLE AT THE BEGINNING OF A STEP BEFORE THE SOLUTION PROCESS HAS BEGUN.
      (2) THE ESTIMATE IS NORMALLY UPDATED AT THE BEGINNING OF EVERY STEP. IT IS THE MAXIMUM VALUE OF THE
          ESTIMATE FROM THE CURRENT STEP TO THE LAST STEP OF THE ANALYSIS, WITH UNSYMMETRIC SOLUTION TAKEN
          INTO ACCOUNT IF APPLICABLE. 
      (3) SINCE THE ESTIMATE IS BASED ON THE ACTIVE DEGREES OF FREEDOM IN THE FIRST ITERATION OF THE 
          CURRENT STEP, THE MEMORY ESTIMATE MIGHT BE SIGNIFICANTLY DIFFERENT THAN ACTUAL USAGE FOR 
          PROBLEMS WITH SUBSTANTIAL CHANGES IN ACTIVE DEGREES OF FREEDOM BETWEEN STEPS (OR EVEN WITHIN
          THE SAME STEP). EXAMPLES ARE: PROBLEMS WITH SIGNIFICANT CONTACT CHANGES, PROBLEMS WITH MODEL
          CHANGE, PROBLEMS WITH BOTH STATIC STEP AND STEADY STATE DYNAMIC PROCEDURES WHERE ACOUSTIC 
          ELEMENTS WILL ONLY BE ACTIVATED IN THE STEADY STATE DYNAMIC STEPS.
      (4) FOR MULTI-PROCESS EXECUTION, THE ESTIMATED VALUE OF FLOATING POINT OPERATIONS FOR EACH PROCESS
          IS BASED ON AN INITIAL SCHEDULING OF OPERATIONS AND MIGHT NOT REFLECT THE ACTUAL FLOATING 
          POINT OPERATIONS COMPLETED ON EACH PROCESS. OPERATIONS ARE DYNAMICALLY BALANCED DURING EXECUTION, 
          SO THE ACTUAL BALANCE OF OPERATIONS BETWEEN PROCESSES IS EXPECTED TO BE BETTER THAN THE ESTIMATE
          PRINTED HERE.
      (5) THE UPPER LIMIT OF MEMORY THAT CAN BE ALLOCATED BY ABAQUS WILL IN GENERAL DEPEND ON THE VALUE OF
          THE "MEMORY" PARAMETER AND THE AMOUNT OF PHYSICAL MEMORY AVAILABLE ON THE MACHINE. PLEASE SEE
          THE "ABAQUS ANALYSIS USER'S MANUAL" FOR MORE DETAILS. THE ACTUAL USAGE OF MEMORY AND OF DISK
          SPACE FOR SCRATCH DATA WILL DEPEND ON THIS UPPER LIMIT AS WELL AS THE MEMORY REQUIRED TO MINIMIZE
          I/O. IF THE MEMORY UPPER LIMIT IS GREATER THAN THE MEMORY REQUIRED TO MINIMIZE I/O, THEN THE ACTUAL
          MEMORY USAGE WILL BE CLOSE TO THE ESTIMATED "MEMORY TO MINIMIZE I/O" VALUE, AND THE SCRATCH DISK
          USAGE WILL BE CLOSE-TO-ZERO; OTHERWISE, THE ACTUAL MEMORY USED WILL BE CLOSE TO THE PREVIOUSLY
          MENTIONED MEMORY LIMIT, AND THE SCRATCH DISK USAGE WILL BE ROUGHLY PROPORTIONAL TO THE DIFFERENCE
          BETWEEN THE ESTIMATED "MEMORY TO MINIMIZE I/O" AND THE MEMORY UPPER LIMIT. HOWEVER ACCURATE
          ESTIMATE OF THE SCRATCH DISK SPACE IS NOT POSSIBLE.
      (6) USING "*RESTART, WRITE" CAN GENERATE A LARGE AMOUNT OF DATA WRITTEN IN THE WORK DIRECTORY.
1

   Abaqus 3DEXPERIENCE R2019x                                  Date 11-Nov-2019   Time 11:02:53
   For use by RWTH AACHEN UNIVERSITY under license from Dassault Systemes or its subsidiary.

                                                                                               STEP    2  INCREMENT    1
                                                                                          TIME COMPLETED IN THIS STEP   0.00    


                        S T E P       2     C O N S O L I D A T I O N   A N A L Y S I S


                                                                                          
          MAX. PORE PRESSURE CHANGE PERMITTED IN AN INC.       5.000E+04
          A SUGGESTED INITIAL TIME INCREMENT OF                6.000E+03
          AND A TOTAL TIME PERIOD OF                           4.320E+04
          THE MINIMUM TIME INCREMENT ALLOWED IS                1.000E-05
          THE MAXIMUM TIME INCREMENT ALLOWED IS                6.000E+03



          CREEP, SWELLING, AND VISCOELASTIC EFFECTS ARE OMITTED IN THIS STEP
          THE ANALYSIS WILL TERMINATE AT THE FINAL TIME SPECIFIED


          UNSYMMETRIC MATRIX STORAGE AND SOLUTION WILL BE USED
  
                   M E M O R Y   E S T I M A T E
  
 PROCESS      FLOATING PT       MINIMUM MEMORY        MEMORY TO
              OPERATIONS           REQUIRED          MINIMIZE I/O
             PER ITERATION           (MB)               (MB)
  
     1          6.27E+08               21                 75
  
 NOTE:
      (1) SINCE ABAQUS DOES NOT PRE-ALLOCATE MEMORY AND ONLY ALLOCATES MEMORY AS NEEDED DURING THE ANALYSIS,
          THE MEMORY REQUIREMENT PRINTED HERE CAN ONLY BE VIEWED AS A GENERAL GUIDELINE BASED ON THE BEST
          KNOWLEDGE AVAILABLE AT THE BEGINNING OF A STEP BEFORE THE SOLUTION PROCESS HAS BEGUN.
      (2) THE ESTIMATE IS NORMALLY UPDATED AT THE BEGINNING OF EVERY STEP. IT IS THE MAXIMUM VALUE OF THE
          ESTIMATE FROM THE CURRENT STEP TO THE LAST STEP OF THE ANALYSIS, WITH UNSYMMETRIC SOLUTION TAKEN
          INTO ACCOUNT IF APPLICABLE. 
      (3) SINCE THE ESTIMATE IS BASED ON THE ACTIVE DEGREES OF FREEDOM IN THE FIRST ITERATION OF THE 
          CURRENT STEP, THE MEMORY ESTIMATE MIGHT BE SIGNIFICANTLY DIFFERENT THAN ACTUAL USAGE FOR 
          PROBLEMS WITH SUBSTANTIAL CHANGES IN ACTIVE DEGREES OF FREEDOM BETWEEN STEPS (OR EVEN WITHIN
          THE SAME STEP). EXAMPLES ARE: PROBLEMS WITH SIGNIFICANT CONTACT CHANGES, PROBLEMS WITH MODEL
          CHANGE, PROBLEMS WITH BOTH STATIC STEP AND STEADY STATE DYNAMIC PROCEDURES WHERE ACOUSTIC 
          ELEMENTS WILL ONLY BE ACTIVATED IN THE STEADY STATE DYNAMIC STEPS.
      (4) FOR MULTI-PROCESS EXECUTION, THE ESTIMATED VALUE OF FLOATING POINT OPERATIONS FOR EACH PROCESS
          IS BASED ON AN INITIAL SCHEDULING OF OPERATIONS AND MIGHT NOT REFLECT THE ACTUAL FLOATING 
          POINT OPERATIONS COMPLETED ON EACH PROCESS. OPERATIONS ARE DYNAMICALLY BALANCED DURING EXECUTION, 
          SO THE ACTUAL BALANCE OF OPERATIONS BETWEEN PROCESSES IS EXPECTED TO BE BETTER THAN THE ESTIMATE
          PRINTED HERE.
      (5) THE UPPER LIMIT OF MEMORY THAT CAN BE ALLOCATED BY ABAQUS WILL IN GENERAL DEPEND ON THE VALUE OF
          THE "MEMORY" PARAMETER AND THE AMOUNT OF PHYSICAL MEMORY AVAILABLE ON THE MACHINE. PLEASE SEE
          THE "ABAQUS ANALYSIS USER'S MANUAL" FOR MORE DETAILS. THE ACTUAL USAGE OF MEMORY AND OF DISK
          SPACE FOR SCRATCH DATA WILL DEPEND ON THIS UPPER LIMIT AS WELL AS THE MEMORY REQUIRED TO MINIMIZE
          I/O. IF THE MEMORY UPPER LIMIT IS GREATER THAN THE MEMORY REQUIRED TO MINIMIZE I/O, THEN THE ACTUAL
          MEMORY USAGE WILL BE CLOSE TO THE ESTIMATED "MEMORY TO MINIMIZE I/O" VALUE, AND THE SCRATCH DISK
          USAGE WILL BE CLOSE-TO-ZERO; OTHERWISE, THE ACTUAL MEMORY USED WILL BE CLOSE TO THE PREVIOUSLY
          MENTIONED MEMORY LIMIT, AND THE SCRATCH DISK USAGE WILL BE ROUGHLY PROPORTIONAL TO THE DIFFERENCE
          BETWEEN THE ESTIMATED "MEMORY TO MINIMIZE I/O" AND THE MEMORY UPPER LIMIT. HOWEVER ACCURATE
          ESTIMATE OF THE SCRATCH DISK SPACE IS NOT POSSIBLE.
      (6) USING "*RESTART, WRITE" CAN GENERATE A LARGE AMOUNT OF DATA WRITTEN IN THE WORK DIRECTORY.


          THE ANALYSIS HAS BEEN COMPLETED



                              ANALYSIS COMPLETE
                              WITH      4 WARNING MESSAGES ON THE DAT FILE
                              AND       1 WARNING MESSAGES ON THE MSG FILE



     JOB TIME SUMMARY
       USER TIME (SEC)      =   14.400    
       SYSTEM TIME (SEC)    =   1.9000    
       TOTAL CPU TIME (SEC) =   16.300    
       WALLCLOCK TIME (SEC) =         16
